version 2
run General-0-20111223-17:52:40-50808
attr configname General
attr datetime 20111223-17:52:40
attr experiment General
attr inifile omnetpp.ini
attr iterationvars "$0=\"1000\""
attr iterationvars2 "$0=\"1000\", $repetition=0"
attr measurement "$0=\"1000\""
attr network Inet
attr processid 50808
attr repetition 0
attr replication #0
attr resultdir results
attr runnumber 0
attr seedset 0

scalar Inet.sas0.core0.networkLayer.arp 	"ARP requests sent" 	0
scalar Inet.sas0.core0.networkLayer.arp 	"ARP replies sent" 	0
scalar Inet.sas0.core0.networkLayer.arp 	"ARP resolutions" 	0
scalar Inet.sas0.core0.networkLayer.arp 	"failed ARP resolutions" 	0
scalar Inet.sas0.core0.ppp[0].queue 	"packets received by queue" 	86148
scalar Inet.sas0.core0.ppp[0].queue 	"packets dropped by queue" 	0
scalar Inet.sas0.core0.ppp[1].queue 	"packets received by queue" 	4299
scalar Inet.sas0.core0.ppp[1].queue 	"packets dropped by queue" 	0
scalar Inet.sas0.core0.ppp[2].queue 	"packets received by queue" 	2169
scalar Inet.sas0.core0.ppp[2].queue 	"packets dropped by queue" 	0
scalar Inet.sas0.core0.ppp[3].queue 	"packets received by queue" 	3123
scalar Inet.sas0.core0.ppp[3].queue 	"packets dropped by queue" 	0
scalar Inet.sas0.core0.ppp[4].queue 	"packets received by queue" 	4799
scalar Inet.sas0.core0.ppp[4].queue 	"packets dropped by queue" 	0
scalar Inet.sas0.core0.ppp[5].queue 	"packets received by queue" 	3079
scalar Inet.sas0.core0.ppp[5].queue 	"packets dropped by queue" 	0
scalar Inet.sas0.core0.ppp[6].queue 	"packets received by queue" 	3995
scalar Inet.sas0.core0.ppp[6].queue 	"packets dropped by queue" 	0
scalar Inet.sas0.gw1.networkLayer.arp 	"ARP requests sent" 	0
scalar Inet.sas0.gw1.networkLayer.arp 	"ARP replies sent" 	0
scalar Inet.sas0.gw1.networkLayer.arp 	"ARP resolutions" 	0
scalar Inet.sas0.gw1.networkLayer.arp 	"failed ARP resolutions" 	0
scalar Inet.sas0.gw1.ppp[0].queue 	"packets received by queue" 	44359
scalar Inet.sas0.gw1.ppp[0].queue 	"packets dropped by queue" 	0
scalar Inet.sas0.gw1.ppp[1].queue 	"packets received by queue" 	290
scalar Inet.sas0.gw1.ppp[1].queue 	"packets dropped by queue" 	0
scalar Inet.sas0.gw1.ppp[2].queue 	"packets received by queue" 	582
scalar Inet.sas0.gw1.ppp[2].queue 	"packets dropped by queue" 	0
scalar Inet.sas0.gw1.ppp[3].queue 	"packets received by queue" 	232
scalar Inet.sas0.gw1.ppp[3].queue 	"packets dropped by queue" 	0
scalar Inet.sas0.gw1.ppp[4].queue 	"packets received by queue" 	739
scalar Inet.sas0.gw1.ppp[4].queue 	"packets dropped by queue" 	0
scalar Inet.sas0.gw1.ppp[5].queue 	"packets received by queue" 	1534
scalar Inet.sas0.gw1.ppp[5].queue 	"packets dropped by queue" 	0
scalar Inet.sas0.gw2.networkLayer.arp 	"ARP requests sent" 	0
scalar Inet.sas0.gw2.networkLayer.arp 	"ARP replies sent" 	0
scalar Inet.sas0.gw2.networkLayer.arp 	"ARP resolutions" 	0
scalar Inet.sas0.gw2.networkLayer.arp 	"failed ARP resolutions" 	0
scalar Inet.sas0.gw2.ppp[0].queue 	"packets received by queue" 	44631
scalar Inet.sas0.gw2.ppp[0].queue 	"packets dropped by queue" 	0
scalar Inet.sas0.gw2.ppp[1].queue 	"packets received by queue" 	3207
scalar Inet.sas0.gw2.ppp[1].queue 	"packets dropped by queue" 	0
scalar Inet.sas0.gw2.ppp[2].queue 	"packets received by queue" 	582
scalar Inet.sas0.gw2.ppp[2].queue 	"packets dropped by queue" 	0
scalar Inet.sas0.gw2.ppp[3].queue 	"packets received by queue" 	380
scalar Inet.sas0.gw2.ppp[3].queue 	"packets dropped by queue" 	0
scalar Inet.sas0.gw2.ppp[4].queue 	"packets received by queue" 	523
scalar Inet.sas0.gw2.ppp[4].queue 	"packets dropped by queue" 	0
scalar Inet.sas0.edge3.networkLayer.arp 	"ARP requests sent" 	0
scalar Inet.sas0.edge3.networkLayer.arp 	"ARP replies sent" 	0
scalar Inet.sas0.edge3.networkLayer.arp 	"ARP resolutions" 	0
scalar Inet.sas0.edge3.networkLayer.arp 	"failed ARP resolutions" 	0
scalar Inet.sas0.edge3.ppp[0].queue 	"packets received by queue" 	342
scalar Inet.sas0.edge3.ppp[0].queue 	"packets dropped by queue" 	0
scalar Inet.sas0.edge3.ppp[1].queue 	"packets received by queue" 	15
scalar Inet.sas0.edge3.ppp[1].queue 	"packets dropped by queue" 	0
scalar Inet.sas0.edge3.ppp[2].queue 	"packets received by queue" 	29
scalar Inet.sas0.edge3.ppp[2].queue 	"packets dropped by queue" 	0
scalar Inet.sas0.edge3.ppp[3].queue 	"packets received by queue" 	71
scalar Inet.sas0.edge3.ppp[3].queue 	"packets dropped by queue" 	0
scalar Inet.sas0.edge3.ppp[4].queue 	"packets received by queue" 	17
scalar Inet.sas0.edge3.ppp[4].queue 	"packets dropped by queue" 	0
scalar Inet.sas0.edge3.ppp[5].queue 	"packets received by queue" 	0
scalar Inet.sas0.edge3.ppp[5].queue 	"packets dropped by queue" 	0
scalar Inet.sas0.edge3.ppp[6].queue 	"packets received by queue" 	87
scalar Inet.sas0.edge3.ppp[6].queue 	"packets dropped by queue" 	0
scalar Inet.sas0.edge3.ppp[7].queue 	"packets received by queue" 	34
scalar Inet.sas0.edge3.ppp[7].queue 	"packets dropped by queue" 	0
scalar Inet.sas0.edge3.ppp[8].queue 	"packets received by queue" 	37
scalar Inet.sas0.edge3.ppp[8].queue 	"packets dropped by queue" 	0
scalar Inet.sas0.edge4.networkLayer.arp 	"ARP requests sent" 	0
scalar Inet.sas0.edge4.networkLayer.arp 	"ARP replies sent" 	0
scalar Inet.sas0.edge4.networkLayer.arp 	"ARP resolutions" 	0
scalar Inet.sas0.edge4.networkLayer.arp 	"failed ARP resolutions" 	0
scalar Inet.sas0.edge4.ppp[0].queue 	"packets received by queue" 	658
scalar Inet.sas0.edge4.ppp[0].queue 	"packets dropped by queue" 	0
scalar Inet.sas0.edge4.ppp[1].queue 	"packets received by queue" 	71
scalar Inet.sas0.edge4.ppp[1].queue 	"packets dropped by queue" 	0
scalar Inet.sas0.edge4.ppp[2].queue 	"packets received by queue" 	171
scalar Inet.sas0.edge4.ppp[2].queue 	"packets dropped by queue" 	0
scalar Inet.sas0.edge4.ppp[3].queue 	"packets received by queue" 	32
scalar Inet.sas0.edge4.ppp[3].queue 	"packets dropped by queue" 	0
scalar Inet.sas0.edge4.ppp[4].queue 	"packets received by queue" 	82
scalar Inet.sas0.edge4.ppp[4].queue 	"packets dropped by queue" 	0
scalar Inet.sas0.edge4.ppp[5].queue 	"packets received by queue" 	82
scalar Inet.sas0.edge4.ppp[5].queue 	"packets dropped by queue" 	0
scalar Inet.sas0.edge4.ppp[6].queue 	"packets received by queue" 	37
scalar Inet.sas0.edge4.ppp[6].queue 	"packets dropped by queue" 	0
scalar Inet.sas0.edge4.ppp[7].queue 	"packets received by queue" 	107
scalar Inet.sas0.edge4.ppp[7].queue 	"packets dropped by queue" 	0
scalar Inet.sas0.edge5.networkLayer.arp 	"ARP requests sent" 	0
scalar Inet.sas0.edge5.networkLayer.arp 	"ARP replies sent" 	0
scalar Inet.sas0.edge5.networkLayer.arp 	"ARP resolutions" 	0
scalar Inet.sas0.edge5.networkLayer.arp 	"failed ARP resolutions" 	0
scalar Inet.sas0.edge5.ppp[0].queue 	"packets received by queue" 	24945
scalar Inet.sas0.edge5.ppp[0].queue 	"packets dropped by queue" 	0
scalar Inet.sas0.edge5.ppp[1].queue 	"packets received by queue" 	60
scalar Inet.sas0.edge5.ppp[1].queue 	"packets dropped by queue" 	0
scalar Inet.sas0.edge5.ppp[2].queue 	"packets received by queue" 	55
scalar Inet.sas0.edge5.ppp[2].queue 	"packets dropped by queue" 	0
scalar Inet.sas0.edge5.ppp[3].queue 	"packets received by queue" 	43
scalar Inet.sas0.edge5.ppp[3].queue 	"packets dropped by queue" 	0
scalar Inet.sas0.edge5.ppp[4].queue 	"packets received by queue" 	44
scalar Inet.sas0.edge5.ppp[4].queue 	"packets dropped by queue" 	0
scalar Inet.sas0.edge5.ppp[5].queue 	"packets received by queue" 	30
scalar Inet.sas0.edge5.ppp[5].queue 	"packets dropped by queue" 	0
scalar Inet.sas0.edge6.networkLayer.arp 	"ARP requests sent" 	0
scalar Inet.sas0.edge6.networkLayer.arp 	"ARP replies sent" 	0
scalar Inet.sas0.edge6.networkLayer.arp 	"ARP resolutions" 	0
scalar Inet.sas0.edge6.networkLayer.arp 	"failed ARP resolutions" 	0
scalar Inet.sas0.edge6.ppp[0].queue 	"packets received by queue" 	9105
scalar Inet.sas0.edge6.ppp[0].queue 	"packets dropped by queue" 	0
scalar Inet.sas0.edge6.ppp[1].queue 	"packets received by queue" 	133
scalar Inet.sas0.edge6.ppp[1].queue 	"packets dropped by queue" 	0
scalar Inet.sas0.edge6.ppp[2].queue 	"packets received by queue" 	197
scalar Inet.sas0.edge6.ppp[2].queue 	"packets dropped by queue" 	0
scalar Inet.sas0.edge6.ppp[3].queue 	"packets received by queue" 	84
scalar Inet.sas0.edge6.ppp[3].queue 	"packets dropped by queue" 	0
scalar Inet.sas0.edge6.ppp[4].queue 	"packets received by queue" 	203
scalar Inet.sas0.edge6.ppp[4].queue 	"packets dropped by queue" 	0
scalar Inet.sas0.edge6.ppp[5].queue 	"packets received by queue" 	43
scalar Inet.sas0.edge6.ppp[5].queue 	"packets dropped by queue" 	0
scalar Inet.sas0.edge6.ppp[6].queue 	"packets received by queue" 	49
scalar Inet.sas0.edge6.ppp[6].queue 	"packets dropped by queue" 	0
scalar Inet.sas0.edge6.ppp[7].queue 	"packets received by queue" 	30
scalar Inet.sas0.edge6.ppp[7].queue 	"packets dropped by queue" 	0
scalar Inet.sas0.edge7.networkLayer.arp 	"ARP requests sent" 	0
scalar Inet.sas0.edge7.networkLayer.arp 	"ARP replies sent" 	0
scalar Inet.sas0.edge7.networkLayer.arp 	"ARP resolutions" 	0
scalar Inet.sas0.edge7.networkLayer.arp 	"failed ARP resolutions" 	0
scalar Inet.sas0.edge7.ppp[0].queue 	"packets received by queue" 	9607
scalar Inet.sas0.edge7.ppp[0].queue 	"packets dropped by queue" 	0
scalar Inet.sas0.edge7.ppp[1].queue 	"packets received by queue" 	141
scalar Inet.sas0.edge7.ppp[1].queue 	"packets dropped by queue" 	0
scalar Inet.sas0.edge7.ppp[2].queue 	"packets received by queue" 	1210
scalar Inet.sas0.edge7.ppp[2].queue 	"packets dropped by queue" 	0
scalar Inet.sas0.edge7.ppp[3].queue 	"packets received by queue" 	39
scalar Inet.sas0.edge7.ppp[3].queue 	"packets dropped by queue" 	0
scalar Inet.sas0.edge7.ppp[4].queue 	"packets received by queue" 	132
scalar Inet.sas0.edge7.ppp[4].queue 	"packets dropped by queue" 	0
scalar Inet.sas0.edge7.ppp[5].queue 	"packets received by queue" 	25
scalar Inet.sas0.edge7.ppp[5].queue 	"packets dropped by queue" 	0
scalar Inet.sas0.edge7.ppp[6].queue 	"packets received by queue" 	87
scalar Inet.sas0.edge7.ppp[6].queue 	"packets dropped by queue" 	0
scalar Inet.sas0.edge7.ppp[7].queue 	"packets received by queue" 	5
scalar Inet.sas0.edge7.ppp[7].queue 	"packets dropped by queue" 	0
scalar Inet.sas0.edge7.ppp[8].queue 	"packets received by queue" 	15
scalar Inet.sas0.edge7.ppp[8].queue 	"packets dropped by queue" 	0
scalar Inet.sas0.edge8.networkLayer.arp 	"ARP requests sent" 	0
scalar Inet.sas0.edge8.networkLayer.arp 	"ARP replies sent" 	0
scalar Inet.sas0.edge8.networkLayer.arp 	"ARP resolutions" 	0
scalar Inet.sas0.edge8.networkLayer.arp 	"failed ARP resolutions" 	0
scalar Inet.sas0.edge8.ppp[0].queue 	"packets received by queue" 	10953
scalar Inet.sas0.edge8.ppp[0].queue 	"packets dropped by queue" 	0
scalar Inet.sas0.edge8.ppp[1].queue 	"packets received by queue" 	1348
scalar Inet.sas0.edge8.ppp[1].queue 	"packets dropped by queue" 	0
scalar Inet.sas0.edge8.ppp[2].queue 	"packets received by queue" 	85
scalar Inet.sas0.edge8.ppp[2].queue 	"packets dropped by queue" 	0
scalar Inet.sas0.edge8.ppp[3].queue 	"packets received by queue" 	1655
scalar Inet.sas0.edge8.ppp[3].queue 	"packets dropped by queue" 	0
scalar Inet.sas0.edge8.ppp[4].queue 	"packets received by queue" 	40
scalar Inet.sas0.edge8.ppp[4].queue 	"packets dropped by queue" 	0
scalar Inet.sas0.edge8.ppp[5].queue 	"packets received by queue" 	60
scalar Inet.sas0.edge8.ppp[5].queue 	"packets dropped by queue" 	0
scalar Inet.sas0.edge8.ppp[6].queue 	"packets received by queue" 	153
scalar Inet.sas0.edge8.ppp[6].queue 	"packets dropped by queue" 	0
scalar Inet.sas0.edge8.ppp[7].queue 	"packets received by queue" 	46
scalar Inet.sas0.edge8.ppp[7].queue 	"packets dropped by queue" 	0
scalar Inet.sas0.edge9.networkLayer.arp 	"ARP requests sent" 	0
scalar Inet.sas0.edge9.networkLayer.arp 	"ARP replies sent" 	0
scalar Inet.sas0.edge9.networkLayer.arp 	"ARP resolutions" 	0
scalar Inet.sas0.edge9.networkLayer.arp 	"failed ARP resolutions" 	0
scalar Inet.sas0.edge9.ppp[0].queue 	"packets received by queue" 	16988
scalar Inet.sas0.edge9.ppp[0].queue 	"packets dropped by queue" 	0
scalar Inet.sas0.edge9.ppp[1].queue 	"packets received by queue" 	44
scalar Inet.sas0.edge9.ppp[1].queue 	"packets dropped by queue" 	0
scalar Inet.sas0.edge9.ppp[2].queue 	"packets received by queue" 	93
scalar Inet.sas0.edge9.ppp[2].queue 	"packets dropped by queue" 	0
scalar Inet.sas0.edge9.ppp[3].queue 	"packets received by queue" 	55
scalar Inet.sas0.edge9.ppp[3].queue 	"packets dropped by queue" 	0
scalar Inet.sas0.edge9.ppp[4].queue 	"packets received by queue" 	63
scalar Inet.sas0.edge9.ppp[4].queue 	"packets dropped by queue" 	0
scalar Inet.sas0.edge9.ppp[5].queue 	"packets received by queue" 	69
scalar Inet.sas0.edge9.ppp[5].queue 	"packets dropped by queue" 	0
scalar Inet.sas0.edge9.ppp[6].queue 	"packets received by queue" 	74
scalar Inet.sas0.edge9.ppp[6].queue 	"packets dropped by queue" 	0
scalar Inet.sas0.edge9.ppp[7].queue 	"packets received by queue" 	39
scalar Inet.sas0.edge9.ppp[7].queue 	"packets dropped by queue" 	0
scalar Inet.sas0.edge9.ppp[8].queue 	"packets received by queue" 	75
scalar Inet.sas0.edge9.ppp[8].queue 	"packets dropped by queue" 	0
scalar Inet.sas0.edge9.ppp[9].queue 	"packets received by queue" 	50
scalar Inet.sas0.edge9.ppp[9].queue 	"packets dropped by queue" 	0
scalar Inet.sas0.edge9.ppp[10].queue 	"packets received by queue" 	20
scalar Inet.sas0.edge9.ppp[10].queue 	"packets dropped by queue" 	0
scalar Inet.sas0.edge10.networkLayer.arp 	"ARP requests sent" 	0
scalar Inet.sas0.edge10.networkLayer.arp 	"ARP replies sent" 	0
scalar Inet.sas0.edge10.networkLayer.arp 	"ARP resolutions" 	0
scalar Inet.sas0.edge10.networkLayer.arp 	"failed ARP resolutions" 	0
scalar Inet.sas0.edge10.ppp[0].queue 	"packets received by queue" 	442
scalar Inet.sas0.edge10.ppp[0].queue 	"packets dropped by queue" 	0
scalar Inet.sas0.edge10.ppp[1].queue 	"packets received by queue" 	0
scalar Inet.sas0.edge10.ppp[1].queue 	"packets dropped by queue" 	0
scalar Inet.sas0.edge10.ppp[2].queue 	"packets received by queue" 	117
scalar Inet.sas0.edge10.ppp[2].queue 	"packets dropped by queue" 	0
scalar Inet.sas0.edge10.ppp[3].queue 	"packets received by queue" 	118
scalar Inet.sas0.edge10.ppp[3].queue 	"packets dropped by queue" 	0
scalar Inet.sas0.edge10.ppp[4].queue 	"packets received by queue" 	111
scalar Inet.sas0.edge10.ppp[4].queue 	"packets dropped by queue" 	0
scalar Inet.sas0.edge10.ppp[5].queue 	"packets received by queue" 	34
scalar Inet.sas0.edge10.ppp[5].queue 	"packets dropped by queue" 	0
scalar Inet.sas0.edge11.networkLayer.arp 	"ARP requests sent" 	0
scalar Inet.sas0.edge11.networkLayer.arp 	"ARP replies sent" 	0
scalar Inet.sas0.edge11.networkLayer.arp 	"ARP resolutions" 	0
scalar Inet.sas0.edge11.networkLayer.arp 	"failed ARP resolutions" 	0
scalar Inet.sas0.edge11.ppp[0].queue 	"packets received by queue" 	16945
scalar Inet.sas0.edge11.ppp[0].queue 	"packets dropped by queue" 	0
scalar Inet.sas0.edge11.ppp[1].queue 	"packets received by queue" 	144
scalar Inet.sas0.edge11.ppp[1].queue 	"packets dropped by queue" 	0
scalar Inet.sas0.edge11.ppp[2].queue 	"packets received by queue" 	48
scalar Inet.sas0.edge11.ppp[2].queue 	"packets dropped by queue" 	0
scalar Inet.sas0.edge11.ppp[3].queue 	"packets received by queue" 	35
scalar Inet.sas0.edge11.ppp[3].queue 	"packets dropped by queue" 	0
scalar Inet.sas0.edge11.ppp[4].queue 	"packets received by queue" 	65
scalar Inet.sas0.edge11.ppp[4].queue 	"packets dropped by queue" 	0
scalar Inet.sas0.edge11.ppp[5].queue 	"packets received by queue" 	45
scalar Inet.sas0.edge11.ppp[5].queue 	"packets dropped by queue" 	0
scalar Inet.sas0.edge11.ppp[6].queue 	"packets received by queue" 	71
scalar Inet.sas0.edge11.ppp[6].queue 	"packets dropped by queue" 	0
scalar Inet.sas0.edge11.ppp[7].queue 	"packets received by queue" 	115
scalar Inet.sas0.edge11.ppp[7].queue 	"packets dropped by queue" 	0
scalar Inet.sas0.host12.inetUser 	"Total bytes sent" 	601
scalar Inet.sas0.host12.inetUser 	"Total packets sent" 	3
scalar Inet.sas0.host12.inetUser 	"Total bytes received" 	3008
scalar Inet.sas0.host12.inetUser 	"Total packets received" 	3
scalar Inet.sas0.host12.inetUser 	"Initiated sessions" 	2
scalar Inet.sas0.host12.inetUser 	"Total TCP bytes sent" 	601
scalar Inet.sas0.host12.inetUser 	"Total TCP packets sent" 	3
scalar Inet.sas0.host12.inetUser 	"Total TCP bytes received" 	3008
scalar Inet.sas0.host12.inetUser 	"Total TCP packets received" 	3
scalar Inet.sas0.host12.inetUser 	"Initiated TCP sessions" 	2
scalar Inet.sas0.host12.inetUser 	"Total UDP bytes sent" 	0
scalar Inet.sas0.host12.inetUser 	"Total UDP packets sent" 	0
scalar Inet.sas0.host12.inetUser 	"Total UDP bytes received" 	0
scalar Inet.sas0.host12.inetUser 	"Total UDP packets received" 	0
scalar Inet.sas0.host12.inetUser 	"Initiated UDP sessions" 	0
scalar Inet.sas0.host12.inetUser 	"Total ICMP bytes sent" 	0
scalar Inet.sas0.host12.inetUser 	"Total ICMP packets sent" 	0
scalar Inet.sas0.host12.inetUser 	"Total ICMP bytes received" 	0
scalar Inet.sas0.host12.inetUser 	"Total ICMP packets received" 	0
scalar Inet.sas0.host12.inetUser 	"Initiated ICMP sessions" 	0
scalar Inet.sas0.host12.networkLayer.ip 	"Total packets" 	0
scalar Inet.sas0.host12.networkLayer.ip 	"TCP packets" 	0
scalar Inet.sas0.host12.networkLayer.ip 	"UDP packets" 	0
scalar Inet.sas0.host12.networkLayer.ip 	"ICMP packets" 	0
scalar Inet.sas0.host12.networkLayer.arp 	"ARP requests sent" 	0
scalar Inet.sas0.host12.networkLayer.arp 	"ARP replies sent" 	0
scalar Inet.sas0.host12.networkLayer.arp 	"ARP resolutions" 	0
scalar Inet.sas0.host12.networkLayer.arp 	"failed ARP resolutions" 	0
scalar Inet.sas0.host12.ppp[0].queue 	"packets received by queue" 	18
scalar Inet.sas0.host12.ppp[0].queue 	"packets dropped by queue" 	0
scalar Inet.sas0.host13.inetUser 	"Total bytes sent" 	1005
scalar Inet.sas0.host13.inetUser 	"Total packets sent" 	5
scalar Inet.sas0.host13.inetUser 	"Total bytes received" 	5144
scalar Inet.sas0.host13.inetUser 	"Total packets received" 	5
scalar Inet.sas0.host13.inetUser 	"Initiated sessions" 	7
scalar Inet.sas0.host13.inetUser 	"Total TCP bytes sent" 	1005
scalar Inet.sas0.host13.inetUser 	"Total TCP packets sent" 	5
scalar Inet.sas0.host13.inetUser 	"Total TCP bytes received" 	5144
scalar Inet.sas0.host13.inetUser 	"Total TCP packets received" 	5
scalar Inet.sas0.host13.inetUser 	"Initiated TCP sessions" 	7
scalar Inet.sas0.host13.inetUser 	"Total UDP bytes sent" 	0
scalar Inet.sas0.host13.inetUser 	"Total UDP packets sent" 	0
scalar Inet.sas0.host13.inetUser 	"Total UDP bytes received" 	0
scalar Inet.sas0.host13.inetUser 	"Total UDP packets received" 	0
scalar Inet.sas0.host13.inetUser 	"Initiated UDP sessions" 	0
scalar Inet.sas0.host13.inetUser 	"Total ICMP bytes sent" 	0
scalar Inet.sas0.host13.inetUser 	"Total ICMP packets sent" 	0
scalar Inet.sas0.host13.inetUser 	"Total ICMP bytes received" 	0
scalar Inet.sas0.host13.inetUser 	"Total ICMP packets received" 	0
scalar Inet.sas0.host13.inetUser 	"Initiated ICMP sessions" 	0
scalar Inet.sas0.host13.networkLayer.ip 	"Total packets" 	0
scalar Inet.sas0.host13.networkLayer.ip 	"TCP packets" 	0
scalar Inet.sas0.host13.networkLayer.ip 	"UDP packets" 	0
scalar Inet.sas0.host13.networkLayer.ip 	"ICMP packets" 	0
scalar Inet.sas0.host13.networkLayer.arp 	"ARP requests sent" 	0
scalar Inet.sas0.host13.networkLayer.arp 	"ARP replies sent" 	0
scalar Inet.sas0.host13.networkLayer.arp 	"ARP resolutions" 	0
scalar Inet.sas0.host13.networkLayer.arp 	"failed ARP resolutions" 	0
scalar Inet.sas0.host13.ppp[0].queue 	"packets received by queue" 	46
scalar Inet.sas0.host13.ppp[0].queue 	"packets dropped by queue" 	0
scalar Inet.sas0.host14.inetUser 	"Total bytes sent" 	38286
scalar Inet.sas0.host14.inetUser 	"Total packets sent" 	8
scalar Inet.sas0.host14.inetUser 	"Total bytes received" 	9104
scalar Inet.sas0.host14.inetUser 	"Total packets received" 	8
scalar Inet.sas0.host14.inetUser 	"Initiated sessions" 	5
scalar Inet.sas0.host14.inetUser 	"Total TCP bytes sent" 	38286
scalar Inet.sas0.host14.inetUser 	"Total TCP packets sent" 	8
scalar Inet.sas0.host14.inetUser 	"Total TCP bytes received" 	9104
scalar Inet.sas0.host14.inetUser 	"Total TCP packets received" 	8
scalar Inet.sas0.host14.inetUser 	"Initiated TCP sessions" 	5
scalar Inet.sas0.host14.inetUser 	"Total UDP bytes sent" 	0
scalar Inet.sas0.host14.inetUser 	"Total UDP packets sent" 	0
scalar Inet.sas0.host14.inetUser 	"Total UDP bytes received" 	0
scalar Inet.sas0.host14.inetUser 	"Total UDP packets received" 	0
scalar Inet.sas0.host14.inetUser 	"Initiated UDP sessions" 	0
scalar Inet.sas0.host14.inetUser 	"Total ICMP bytes sent" 	0
scalar Inet.sas0.host14.inetUser 	"Total ICMP packets sent" 	0
scalar Inet.sas0.host14.inetUser 	"Total ICMP bytes received" 	0
scalar Inet.sas0.host14.inetUser 	"Total ICMP packets received" 	0
scalar Inet.sas0.host14.inetUser 	"Initiated ICMP sessions" 	0
scalar Inet.sas0.host14.networkLayer.ip 	"Total packets" 	0
scalar Inet.sas0.host14.networkLayer.ip 	"TCP packets" 	0
scalar Inet.sas0.host14.networkLayer.ip 	"UDP packets" 	0
scalar Inet.sas0.host14.networkLayer.ip 	"ICMP packets" 	0
scalar Inet.sas0.host14.networkLayer.arp 	"ARP requests sent" 	0
scalar Inet.sas0.host14.networkLayer.arp 	"ARP replies sent" 	0
scalar Inet.sas0.host14.networkLayer.arp 	"ARP resolutions" 	0
scalar Inet.sas0.host14.networkLayer.arp 	"failed ARP resolutions" 	0
scalar Inet.sas0.host14.ppp[0].queue 	"packets received by queue" 	77
scalar Inet.sas0.host14.ppp[0].queue 	"packets dropped by queue" 	0
scalar Inet.sas0.host15.inetUser 	"Total bytes sent" 	1172
scalar Inet.sas0.host15.inetUser 	"Total packets sent" 	3
scalar Inet.sas0.host15.inetUser 	"Total bytes received" 	3008
scalar Inet.sas0.host15.inetUser 	"Total packets received" 	3
scalar Inet.sas0.host15.inetUser 	"Initiated sessions" 	2
scalar Inet.sas0.host15.inetUser 	"Total TCP bytes sent" 	1172
scalar Inet.sas0.host15.inetUser 	"Total TCP packets sent" 	3
scalar Inet.sas0.host15.inetUser 	"Total TCP bytes received" 	3008
scalar Inet.sas0.host15.inetUser 	"Total TCP packets received" 	3
scalar Inet.sas0.host15.inetUser 	"Initiated TCP sessions" 	2
scalar Inet.sas0.host15.inetUser 	"Total UDP bytes sent" 	0
scalar Inet.sas0.host15.inetUser 	"Total UDP packets sent" 	0
scalar Inet.sas0.host15.inetUser 	"Total UDP bytes received" 	0
scalar Inet.sas0.host15.inetUser 	"Total UDP packets received" 	0
scalar Inet.sas0.host15.inetUser 	"Initiated UDP sessions" 	0
scalar Inet.sas0.host15.inetUser 	"Total ICMP bytes sent" 	0
scalar Inet.sas0.host15.inetUser 	"Total ICMP packets sent" 	0
scalar Inet.sas0.host15.inetUser 	"Total ICMP bytes received" 	0
scalar Inet.sas0.host15.inetUser 	"Total ICMP packets received" 	0
scalar Inet.sas0.host15.inetUser 	"Initiated ICMP sessions" 	0
scalar Inet.sas0.host15.networkLayer.ip 	"Total packets" 	0
scalar Inet.sas0.host15.networkLayer.ip 	"TCP packets" 	0
scalar Inet.sas0.host15.networkLayer.ip 	"UDP packets" 	0
scalar Inet.sas0.host15.networkLayer.ip 	"ICMP packets" 	0
scalar Inet.sas0.host15.networkLayer.arp 	"ARP requests sent" 	0
scalar Inet.sas0.host15.networkLayer.arp 	"ARP replies sent" 	0
scalar Inet.sas0.host15.networkLayer.arp 	"ARP resolutions" 	0
scalar Inet.sas0.host15.networkLayer.arp 	"failed ARP resolutions" 	0
scalar Inet.sas0.host15.ppp[0].queue 	"packets received by queue" 	20
scalar Inet.sas0.host15.ppp[0].queue 	"packets dropped by queue" 	0
scalar Inet.sas0.host_InteractiveServer16.networkLayer.arp 	"ARP requests sent" 	0
scalar Inet.sas0.host_InteractiveServer16.networkLayer.arp 	"ARP replies sent" 	0
scalar Inet.sas0.host_InteractiveServer16.networkLayer.arp 	"ARP resolutions" 	0
scalar Inet.sas0.host_InteractiveServer16.networkLayer.arp 	"failed ARP resolutions" 	0
scalar Inet.sas0.host_InteractiveServer16.ppp[0].queue 	"packets received by queue" 	0
scalar Inet.sas0.host_InteractiveServer16.ppp[0].queue 	"packets dropped by queue" 	0
scalar Inet.sas0.host17.inetUser 	"Total bytes sent" 	1232
scalar Inet.sas0.host17.inetUser 	"Total packets sent" 	6
scalar Inet.sas0.host17.inetUser 	"Total bytes received" 	65136
scalar Inet.sas0.host17.inetUser 	"Total packets received" 	6
scalar Inet.sas0.host17.inetUser 	"Initiated sessions" 	5
scalar Inet.sas0.host17.inetUser 	"Total TCP bytes sent" 	1232
scalar Inet.sas0.host17.inetUser 	"Total TCP packets sent" 	6
scalar Inet.sas0.host17.inetUser 	"Total TCP bytes received" 	65136
scalar Inet.sas0.host17.inetUser 	"Total TCP packets received" 	6
scalar Inet.sas0.host17.inetUser 	"Initiated TCP sessions" 	5
scalar Inet.sas0.host17.inetUser 	"Total UDP bytes sent" 	0
scalar Inet.sas0.host17.inetUser 	"Total UDP packets sent" 	0
scalar Inet.sas0.host17.inetUser 	"Total UDP bytes received" 	0
scalar Inet.sas0.host17.inetUser 	"Total UDP packets received" 	0
scalar Inet.sas0.host17.inetUser 	"Initiated UDP sessions" 	0
scalar Inet.sas0.host17.inetUser 	"Total ICMP bytes sent" 	0
scalar Inet.sas0.host17.inetUser 	"Total ICMP packets sent" 	0
scalar Inet.sas0.host17.inetUser 	"Total ICMP bytes received" 	0
scalar Inet.sas0.host17.inetUser 	"Total ICMP packets received" 	0
scalar Inet.sas0.host17.inetUser 	"Initiated ICMP sessions" 	0
scalar Inet.sas0.host17.networkLayer.ip 	"Total packets" 	0
scalar Inet.sas0.host17.networkLayer.ip 	"TCP packets" 	0
scalar Inet.sas0.host17.networkLayer.ip 	"UDP packets" 	0
scalar Inet.sas0.host17.networkLayer.ip 	"ICMP packets" 	0
scalar Inet.sas0.host17.networkLayer.arp 	"ARP requests sent" 	0
scalar Inet.sas0.host17.networkLayer.arp 	"ARP replies sent" 	0
scalar Inet.sas0.host17.networkLayer.arp 	"ARP resolutions" 	0
scalar Inet.sas0.host17.networkLayer.arp 	"failed ARP resolutions" 	0
scalar Inet.sas0.host17.ppp[0].queue 	"packets received by queue" 	93
scalar Inet.sas0.host17.ppp[0].queue 	"packets dropped by queue" 	0
scalar Inet.sas0.host18.inetUser 	"Total bytes sent" 	1200
scalar Inet.sas0.host18.inetUser 	"Total packets sent" 	6
scalar Inet.sas0.host18.inetUser 	"Total bytes received" 	13853
scalar Inet.sas0.host18.inetUser 	"Total packets received" 	6
scalar Inet.sas0.host18.inetUser 	"Initiated sessions" 	5
scalar Inet.sas0.host18.inetUser 	"Total TCP bytes sent" 	1200
scalar Inet.sas0.host18.inetUser 	"Total TCP packets sent" 	6
scalar Inet.sas0.host18.inetUser 	"Total TCP bytes received" 	13853
scalar Inet.sas0.host18.inetUser 	"Total TCP packets received" 	6
scalar Inet.sas0.host18.inetUser 	"Initiated TCP sessions" 	5
scalar Inet.sas0.host18.inetUser 	"Total UDP bytes sent" 	0
scalar Inet.sas0.host18.inetUser 	"Total UDP packets sent" 	0
scalar Inet.sas0.host18.inetUser 	"Total UDP bytes received" 	0
scalar Inet.sas0.host18.inetUser 	"Total UDP packets received" 	0
scalar Inet.sas0.host18.inetUser 	"Initiated UDP sessions" 	0
scalar Inet.sas0.host18.inetUser 	"Total ICMP bytes sent" 	0
scalar Inet.sas0.host18.inetUser 	"Total ICMP packets sent" 	0
scalar Inet.sas0.host18.inetUser 	"Total ICMP bytes received" 	0
scalar Inet.sas0.host18.inetUser 	"Total ICMP packets received" 	0
scalar Inet.sas0.host18.inetUser 	"Initiated ICMP sessions" 	0
scalar Inet.sas0.host18.networkLayer.ip 	"Total packets" 	0
scalar Inet.sas0.host18.networkLayer.ip 	"TCP packets" 	0
scalar Inet.sas0.host18.networkLayer.ip 	"UDP packets" 	0
scalar Inet.sas0.host18.networkLayer.ip 	"ICMP packets" 	0
scalar Inet.sas0.host18.networkLayer.arp 	"ARP requests sent" 	0
scalar Inet.sas0.host18.networkLayer.arp 	"ARP replies sent" 	0
scalar Inet.sas0.host18.networkLayer.arp 	"ARP resolutions" 	0
scalar Inet.sas0.host18.networkLayer.arp 	"failed ARP resolutions" 	0
scalar Inet.sas0.host18.ppp[0].queue 	"packets received by queue" 	44
scalar Inet.sas0.host18.ppp[0].queue 	"packets dropped by queue" 	0
scalar Inet.sas0.host19.inetUser 	"Total bytes sent" 	1887
scalar Inet.sas0.host19.inetUser 	"Total packets sent" 	6
scalar Inet.sas0.host19.inetUser 	"Total bytes received" 	6174
scalar Inet.sas0.host19.inetUser 	"Total packets received" 	6
scalar Inet.sas0.host19.inetUser 	"Initiated sessions" 	5
scalar Inet.sas0.host19.inetUser 	"Total TCP bytes sent" 	1887
scalar Inet.sas0.host19.inetUser 	"Total TCP packets sent" 	6
scalar Inet.sas0.host19.inetUser 	"Total TCP bytes received" 	6174
scalar Inet.sas0.host19.inetUser 	"Total TCP packets received" 	6
scalar Inet.sas0.host19.inetUser 	"Initiated TCP sessions" 	5
scalar Inet.sas0.host19.inetUser 	"Total UDP bytes sent" 	0
scalar Inet.sas0.host19.inetUser 	"Total UDP packets sent" 	0
scalar Inet.sas0.host19.inetUser 	"Total UDP bytes received" 	0
scalar Inet.sas0.host19.inetUser 	"Total UDP packets received" 	0
scalar Inet.sas0.host19.inetUser 	"Initiated UDP sessions" 	0
scalar Inet.sas0.host19.inetUser 	"Total ICMP bytes sent" 	0
scalar Inet.sas0.host19.inetUser 	"Total ICMP packets sent" 	0
scalar Inet.sas0.host19.inetUser 	"Total ICMP bytes received" 	0
scalar Inet.sas0.host19.inetUser 	"Total ICMP packets received" 	0
scalar Inet.sas0.host19.inetUser 	"Initiated ICMP sessions" 	0
scalar Inet.sas0.host19.networkLayer.ip 	"Total packets" 	0
scalar Inet.sas0.host19.networkLayer.ip 	"TCP packets" 	0
scalar Inet.sas0.host19.networkLayer.ip 	"UDP packets" 	0
scalar Inet.sas0.host19.networkLayer.ip 	"ICMP packets" 	0
scalar Inet.sas0.host19.networkLayer.arp 	"ARP requests sent" 	0
scalar Inet.sas0.host19.networkLayer.arp 	"ARP replies sent" 	0
scalar Inet.sas0.host19.networkLayer.arp 	"ARP resolutions" 	0
scalar Inet.sas0.host19.networkLayer.arp 	"failed ARP resolutions" 	0
scalar Inet.sas0.host19.ppp[0].queue 	"packets received by queue" 	44
scalar Inet.sas0.host19.ppp[0].queue 	"packets dropped by queue" 	0
scalar Inet.sas0.host20.inetUser 	"Total bytes sent" 	60200
scalar Inet.sas0.host20.inetUser 	"Total packets sent" 	2
scalar Inet.sas0.host20.inetUser 	"Total bytes received" 	2002
scalar Inet.sas0.host20.inetUser 	"Total packets received" 	2
scalar Inet.sas0.host20.inetUser 	"Initiated sessions" 	2
scalar Inet.sas0.host20.inetUser 	"Total TCP bytes sent" 	60200
scalar Inet.sas0.host20.inetUser 	"Total TCP packets sent" 	2
scalar Inet.sas0.host20.inetUser 	"Total TCP bytes received" 	2002
scalar Inet.sas0.host20.inetUser 	"Total TCP packets received" 	2
scalar Inet.sas0.host20.inetUser 	"Initiated TCP sessions" 	2
scalar Inet.sas0.host20.inetUser 	"Total UDP bytes sent" 	0
scalar Inet.sas0.host20.inetUser 	"Total UDP packets sent" 	0
scalar Inet.sas0.host20.inetUser 	"Total UDP bytes received" 	0
scalar Inet.sas0.host20.inetUser 	"Total UDP packets received" 	0
scalar Inet.sas0.host20.inetUser 	"Initiated UDP sessions" 	0
scalar Inet.sas0.host20.inetUser 	"Total ICMP bytes sent" 	0
scalar Inet.sas0.host20.inetUser 	"Total ICMP packets sent" 	0
scalar Inet.sas0.host20.inetUser 	"Total ICMP bytes received" 	0
scalar Inet.sas0.host20.inetUser 	"Total ICMP packets received" 	0
scalar Inet.sas0.host20.inetUser 	"Initiated ICMP sessions" 	0
scalar Inet.sas0.host20.networkLayer.ip 	"Total packets" 	0
scalar Inet.sas0.host20.networkLayer.ip 	"TCP packets" 	0
scalar Inet.sas0.host20.networkLayer.ip 	"UDP packets" 	0
scalar Inet.sas0.host20.networkLayer.ip 	"ICMP packets" 	0
scalar Inet.sas0.host20.networkLayer.arp 	"ARP requests sent" 	0
scalar Inet.sas0.host20.networkLayer.arp 	"ARP replies sent" 	0
scalar Inet.sas0.host20.networkLayer.arp 	"ARP resolutions" 	0
scalar Inet.sas0.host20.networkLayer.arp 	"failed ARP resolutions" 	0
scalar Inet.sas0.host20.ppp[0].queue 	"packets received by queue" 	74
scalar Inet.sas0.host20.ppp[0].queue 	"packets dropped by queue" 	0
scalar Inet.sas0.host21.inetUser 	"Total bytes sent" 	3210
scalar Inet.sas0.host21.inetUser 	"Total packets sent" 	12
scalar Inet.sas0.host21.inetUser 	"Total bytes received" 	132258
scalar Inet.sas0.host21.inetUser 	"Total packets received" 	12
scalar Inet.sas0.host21.inetUser 	"Initiated sessions" 	9
scalar Inet.sas0.host21.inetUser 	"Total TCP bytes sent" 	3210
scalar Inet.sas0.host21.inetUser 	"Total TCP packets sent" 	12
scalar Inet.sas0.host21.inetUser 	"Total TCP bytes received" 	132258
scalar Inet.sas0.host21.inetUser 	"Total TCP packets received" 	12
scalar Inet.sas0.host21.inetUser 	"Initiated TCP sessions" 	9
scalar Inet.sas0.host21.inetUser 	"Total UDP bytes sent" 	0
scalar Inet.sas0.host21.inetUser 	"Total UDP packets sent" 	0
scalar Inet.sas0.host21.inetUser 	"Total UDP bytes received" 	0
scalar Inet.sas0.host21.inetUser 	"Total UDP packets received" 	0
scalar Inet.sas0.host21.inetUser 	"Initiated UDP sessions" 	0
scalar Inet.sas0.host21.inetUser 	"Total ICMP bytes sent" 	0
scalar Inet.sas0.host21.inetUser 	"Total ICMP packets sent" 	0
scalar Inet.sas0.host21.inetUser 	"Total ICMP bytes received" 	0
scalar Inet.sas0.host21.inetUser 	"Total ICMP packets received" 	0
scalar Inet.sas0.host21.inetUser 	"Initiated ICMP sessions" 	0
scalar Inet.sas0.host21.networkLayer.ip 	"Total packets" 	0
scalar Inet.sas0.host21.networkLayer.ip 	"TCP packets" 	0
scalar Inet.sas0.host21.networkLayer.ip 	"UDP packets" 	0
scalar Inet.sas0.host21.networkLayer.ip 	"ICMP packets" 	0
scalar Inet.sas0.host21.networkLayer.arp 	"ARP requests sent" 	0
scalar Inet.sas0.host21.networkLayer.arp 	"ARP replies sent" 	0
scalar Inet.sas0.host21.networkLayer.arp 	"ARP resolutions" 	0
scalar Inet.sas0.host21.networkLayer.arp 	"failed ARP resolutions" 	0
scalar Inet.sas0.host21.ppp[0].queue 	"packets received by queue" 	181
scalar Inet.sas0.host21.ppp[0].queue 	"packets dropped by queue" 	0
scalar Inet.sas0.host22.inetUser 	"Total bytes sent" 	14957
scalar Inet.sas0.host22.inetUser 	"Total packets sent" 	4
scalar Inet.sas0.host22.inetUser 	"Total bytes received" 	4109
scalar Inet.sas0.host22.inetUser 	"Total packets received" 	4
scalar Inet.sas0.host22.inetUser 	"Initiated sessions" 	2
scalar Inet.sas0.host22.inetUser 	"Total TCP bytes sent" 	14957
scalar Inet.sas0.host22.inetUser 	"Total TCP packets sent" 	4
scalar Inet.sas0.host22.inetUser 	"Total TCP bytes received" 	4109
scalar Inet.sas0.host22.inetUser 	"Total TCP packets received" 	4
scalar Inet.sas0.host22.inetUser 	"Initiated TCP sessions" 	2
scalar Inet.sas0.host22.inetUser 	"Total UDP bytes sent" 	0
scalar Inet.sas0.host22.inetUser 	"Total UDP packets sent" 	0
scalar Inet.sas0.host22.inetUser 	"Total UDP bytes received" 	0
scalar Inet.sas0.host22.inetUser 	"Total UDP packets received" 	0
scalar Inet.sas0.host22.inetUser 	"Initiated UDP sessions" 	0
scalar Inet.sas0.host22.inetUser 	"Total ICMP bytes sent" 	0
scalar Inet.sas0.host22.inetUser 	"Total ICMP packets sent" 	0
scalar Inet.sas0.host22.inetUser 	"Total ICMP bytes received" 	0
scalar Inet.sas0.host22.inetUser 	"Total ICMP packets received" 	0
scalar Inet.sas0.host22.inetUser 	"Initiated ICMP sessions" 	0
scalar Inet.sas0.host22.networkLayer.ip 	"Total packets" 	0
scalar Inet.sas0.host22.networkLayer.ip 	"TCP packets" 	0
scalar Inet.sas0.host22.networkLayer.ip 	"UDP packets" 	0
scalar Inet.sas0.host22.networkLayer.ip 	"ICMP packets" 	0
scalar Inet.sas0.host22.networkLayer.arp 	"ARP requests sent" 	0
scalar Inet.sas0.host22.networkLayer.arp 	"ARP replies sent" 	0
scalar Inet.sas0.host22.networkLayer.arp 	"ARP resolutions" 	0
scalar Inet.sas0.host22.networkLayer.arp 	"failed ARP resolutions" 	0
scalar Inet.sas0.host22.ppp[0].queue 	"packets received by queue" 	35
scalar Inet.sas0.host22.ppp[0].queue 	"packets dropped by queue" 	0
scalar Inet.sas0.host23.inetUser 	"Total bytes sent" 	25679
scalar Inet.sas0.host23.inetUser 	"Total packets sent" 	14
scalar Inet.sas0.host23.inetUser 	"Total bytes received" 	14230
scalar Inet.sas0.host23.inetUser 	"Total packets received" 	14
scalar Inet.sas0.host23.inetUser 	"Initiated sessions" 	10
scalar Inet.sas0.host23.inetUser 	"Total TCP bytes sent" 	25679
scalar Inet.sas0.host23.inetUser 	"Total TCP packets sent" 	14
scalar Inet.sas0.host23.inetUser 	"Total TCP bytes received" 	14230
scalar Inet.sas0.host23.inetUser 	"Total TCP packets received" 	14
scalar Inet.sas0.host23.inetUser 	"Initiated TCP sessions" 	10
scalar Inet.sas0.host23.inetUser 	"Total UDP bytes sent" 	0
scalar Inet.sas0.host23.inetUser 	"Total UDP packets sent" 	0
scalar Inet.sas0.host23.inetUser 	"Total UDP bytes received" 	0
scalar Inet.sas0.host23.inetUser 	"Total UDP packets received" 	0
scalar Inet.sas0.host23.inetUser 	"Initiated UDP sessions" 	0
scalar Inet.sas0.host23.inetUser 	"Total ICMP bytes sent" 	0
scalar Inet.sas0.host23.inetUser 	"Total ICMP packets sent" 	0
scalar Inet.sas0.host23.inetUser 	"Total ICMP bytes received" 	0
scalar Inet.sas0.host23.inetUser 	"Total ICMP packets received" 	0
scalar Inet.sas0.host23.inetUser 	"Initiated ICMP sessions" 	0
scalar Inet.sas0.host23.networkLayer.ip 	"Total packets" 	0
scalar Inet.sas0.host23.networkLayer.ip 	"TCP packets" 	0
scalar Inet.sas0.host23.networkLayer.ip 	"UDP packets" 	0
scalar Inet.sas0.host23.networkLayer.ip 	"ICMP packets" 	0
scalar Inet.sas0.host23.networkLayer.arp 	"ARP requests sent" 	0
scalar Inet.sas0.host23.networkLayer.arp 	"ARP replies sent" 	0
scalar Inet.sas0.host23.networkLayer.arp 	"ARP resolutions" 	0
scalar Inet.sas0.host23.networkLayer.arp 	"failed ARP resolutions" 	0
scalar Inet.sas0.host23.ppp[0].queue 	"packets received by queue" 	93
scalar Inet.sas0.host23.ppp[0].queue 	"packets dropped by queue" 	0
scalar Inet.sas0.host24.inetUser 	"Total bytes sent" 	21271
scalar Inet.sas0.host24.inetUser 	"Total packets sent" 	14
scalar Inet.sas0.host24.inetUser 	"Total bytes received" 	16839
scalar Inet.sas0.host24.inetUser 	"Total packets received" 	14
scalar Inet.sas0.host24.inetUser 	"Initiated sessions" 	12
scalar Inet.sas0.host24.inetUser 	"Total TCP bytes sent" 	21271
scalar Inet.sas0.host24.inetUser 	"Total TCP packets sent" 	14
scalar Inet.sas0.host24.inetUser 	"Total TCP bytes received" 	16839
scalar Inet.sas0.host24.inetUser 	"Total TCP packets received" 	14
scalar Inet.sas0.host24.inetUser 	"Initiated TCP sessions" 	12
scalar Inet.sas0.host24.inetUser 	"Total UDP bytes sent" 	0
scalar Inet.sas0.host24.inetUser 	"Total UDP packets sent" 	0
scalar Inet.sas0.host24.inetUser 	"Total UDP bytes received" 	0
scalar Inet.sas0.host24.inetUser 	"Total UDP packets received" 	0
scalar Inet.sas0.host24.inetUser 	"Initiated UDP sessions" 	0
scalar Inet.sas0.host24.inetUser 	"Total ICMP bytes sent" 	0
scalar Inet.sas0.host24.inetUser 	"Total ICMP packets sent" 	0
scalar Inet.sas0.host24.inetUser 	"Total ICMP bytes received" 	0
scalar Inet.sas0.host24.inetUser 	"Total ICMP packets received" 	0
scalar Inet.sas0.host24.inetUser 	"Initiated ICMP sessions" 	0
scalar Inet.sas0.host24.networkLayer.ip 	"Total packets" 	0
scalar Inet.sas0.host24.networkLayer.ip 	"TCP packets" 	0
scalar Inet.sas0.host24.networkLayer.ip 	"UDP packets" 	0
scalar Inet.sas0.host24.networkLayer.ip 	"ICMP packets" 	0
scalar Inet.sas0.host24.networkLayer.arp 	"ARP requests sent" 	0
scalar Inet.sas0.host24.networkLayer.arp 	"ARP replies sent" 	0
scalar Inet.sas0.host24.networkLayer.arp 	"ARP resolutions" 	0
scalar Inet.sas0.host24.networkLayer.arp 	"failed ARP resolutions" 	0
scalar Inet.sas0.host24.ppp[0].queue 	"packets received by queue" 	108
scalar Inet.sas0.host24.ppp[0].queue 	"packets dropped by queue" 	0
scalar Inet.sas0.host25.inetUser 	"Total bytes sent" 	1410
scalar Inet.sas0.host25.inetUser 	"Total packets sent" 	7
scalar Inet.sas0.host25.inetUser 	"Total bytes received" 	7054
scalar Inet.sas0.host25.inetUser 	"Total packets received" 	7
scalar Inet.sas0.host25.inetUser 	"Initiated sessions" 	6
scalar Inet.sas0.host25.inetUser 	"Total TCP bytes sent" 	1410
scalar Inet.sas0.host25.inetUser 	"Total TCP packets sent" 	7
scalar Inet.sas0.host25.inetUser 	"Total TCP bytes received" 	7054
scalar Inet.sas0.host25.inetUser 	"Total TCP packets received" 	7
scalar Inet.sas0.host25.inetUser 	"Initiated TCP sessions" 	6
scalar Inet.sas0.host25.inetUser 	"Total UDP bytes sent" 	0
scalar Inet.sas0.host25.inetUser 	"Total UDP packets sent" 	0
scalar Inet.sas0.host25.inetUser 	"Total UDP bytes received" 	0
scalar Inet.sas0.host25.inetUser 	"Total UDP packets received" 	0
scalar Inet.sas0.host25.inetUser 	"Initiated UDP sessions" 	0
scalar Inet.sas0.host25.inetUser 	"Total ICMP bytes sent" 	0
scalar Inet.sas0.host25.inetUser 	"Total ICMP packets sent" 	0
scalar Inet.sas0.host25.inetUser 	"Total ICMP bytes received" 	0
scalar Inet.sas0.host25.inetUser 	"Total ICMP packets received" 	0
scalar Inet.sas0.host25.inetUser 	"Initiated ICMP sessions" 	0
scalar Inet.sas0.host25.networkLayer.ip 	"Total packets" 	0
scalar Inet.sas0.host25.networkLayer.ip 	"TCP packets" 	0
scalar Inet.sas0.host25.networkLayer.ip 	"UDP packets" 	0
scalar Inet.sas0.host25.networkLayer.ip 	"ICMP packets" 	0
scalar Inet.sas0.host25.networkLayer.arp 	"ARP requests sent" 	0
scalar Inet.sas0.host25.networkLayer.arp 	"ARP replies sent" 	0
scalar Inet.sas0.host25.networkLayer.arp 	"ARP resolutions" 	0
scalar Inet.sas0.host25.networkLayer.arp 	"failed ARP resolutions" 	0
scalar Inet.sas0.host25.ppp[0].queue 	"packets received by queue" 	46
scalar Inet.sas0.host25.ppp[0].queue 	"packets dropped by queue" 	0
scalar Inet.sas0.host26.inetUser 	"Total bytes sent" 	62446
scalar Inet.sas0.host26.inetUser 	"Total packets sent" 	11
scalar Inet.sas0.host26.inetUser 	"Total bytes received" 	11026
scalar Inet.sas0.host26.inetUser 	"Total packets received" 	11
scalar Inet.sas0.host26.inetUser 	"Initiated sessions" 	9
scalar Inet.sas0.host26.inetUser 	"Total TCP bytes sent" 	62446
scalar Inet.sas0.host26.inetUser 	"Total TCP packets sent" 	11
scalar Inet.sas0.host26.inetUser 	"Total TCP bytes received" 	11026
scalar Inet.sas0.host26.inetUser 	"Total TCP packets received" 	11
scalar Inet.sas0.host26.inetUser 	"Initiated TCP sessions" 	9
scalar Inet.sas0.host26.inetUser 	"Total UDP bytes sent" 	0
scalar Inet.sas0.host26.inetUser 	"Total UDP packets sent" 	0
scalar Inet.sas0.host26.inetUser 	"Total UDP bytes received" 	0
scalar Inet.sas0.host26.inetUser 	"Total UDP packets received" 	0
scalar Inet.sas0.host26.inetUser 	"Initiated UDP sessions" 	0
scalar Inet.sas0.host26.inetUser 	"Total ICMP bytes sent" 	0
scalar Inet.sas0.host26.inetUser 	"Total ICMP packets sent" 	0
scalar Inet.sas0.host26.inetUser 	"Total ICMP bytes received" 	0
scalar Inet.sas0.host26.inetUser 	"Total ICMP packets received" 	0
scalar Inet.sas0.host26.inetUser 	"Initiated ICMP sessions" 	0
scalar Inet.sas0.host26.networkLayer.ip 	"Total packets" 	0
scalar Inet.sas0.host26.networkLayer.ip 	"TCP packets" 	0
scalar Inet.sas0.host26.networkLayer.ip 	"UDP packets" 	0
scalar Inet.sas0.host26.networkLayer.ip 	"ICMP packets" 	0
scalar Inet.sas0.host26.networkLayer.arp 	"ARP requests sent" 	0
scalar Inet.sas0.host26.networkLayer.arp 	"ARP replies sent" 	0
scalar Inet.sas0.host26.networkLayer.arp 	"ARP resolutions" 	0
scalar Inet.sas0.host26.networkLayer.arp 	"failed ARP resolutions" 	0
scalar Inet.sas0.host26.ppp[0].queue 	"packets received by queue" 	121
scalar Inet.sas0.host26.ppp[0].queue 	"packets dropped by queue" 	0
scalar Inet.sas0.host_DDoSZombie27.tribeFloodNetwork 	"Attack index" 	0
scalar Inet.sas0.host_DDoSZombie27.tribeFloodNetwork 	"Attack started" 	1002.0941131333
scalar Inet.sas0.host_DDoSZombie27.tribeFloodNetwork 	"Attack ended" 	3600
scalar Inet.sas0.host_DDoSZombie27.tribeFloodNetwork 	"Attack packets sent" 	8366
scalar Inet.sas0.host_DDoSZombie27.networkLayer.ip 	"Total packets" 	0
scalar Inet.sas0.host_DDoSZombie27.networkLayer.ip 	"TCP packets" 	0
scalar Inet.sas0.host_DDoSZombie27.networkLayer.ip 	"UDP packets" 	0
scalar Inet.sas0.host_DDoSZombie27.networkLayer.ip 	"ICMP packets" 	0
scalar Inet.sas0.host_DDoSZombie27.networkLayer.arp 	"ARP requests sent" 	0
scalar Inet.sas0.host_DDoSZombie27.networkLayer.arp 	"ARP replies sent" 	0
scalar Inet.sas0.host_DDoSZombie27.networkLayer.arp 	"ARP resolutions" 	0
scalar Inet.sas0.host_DDoSZombie27.networkLayer.arp 	"failed ARP resolutions" 	0
scalar Inet.sas0.host_DDoSZombie27.ppp[0].queue 	"packets received by queue" 	8366
scalar Inet.sas0.host_DDoSZombie27.ppp[0].queue 	"packets dropped by queue" 	0
scalar Inet.sas0.host_DDoSZombie28.tribeFloodNetwork 	"Attack index" 	0
scalar Inet.sas0.host_DDoSZombie28.tribeFloodNetwork 	"Attack started" 	1002.2400520911
scalar Inet.sas0.host_DDoSZombie28.tribeFloodNetwork 	"Attack ended" 	3600
scalar Inet.sas0.host_DDoSZombie28.tribeFloodNetwork 	"Attack packets sent" 	8307
scalar Inet.sas0.host_DDoSZombie28.networkLayer.ip 	"Total packets" 	0
scalar Inet.sas0.host_DDoSZombie28.networkLayer.ip 	"TCP packets" 	0
scalar Inet.sas0.host_DDoSZombie28.networkLayer.ip 	"UDP packets" 	0
scalar Inet.sas0.host_DDoSZombie28.networkLayer.ip 	"ICMP packets" 	0
scalar Inet.sas0.host_DDoSZombie28.networkLayer.arp 	"ARP requests sent" 	0
scalar Inet.sas0.host_DDoSZombie28.networkLayer.arp 	"ARP replies sent" 	0
scalar Inet.sas0.host_DDoSZombie28.networkLayer.arp 	"ARP resolutions" 	0
scalar Inet.sas0.host_DDoSZombie28.networkLayer.arp 	"failed ARP resolutions" 	0
scalar Inet.sas0.host_DDoSZombie28.ppp[0].queue 	"packets received by queue" 	8307
scalar Inet.sas0.host_DDoSZombie28.ppp[0].queue 	"packets dropped by queue" 	0
scalar Inet.sas0.host29.inetUser 	"Total bytes sent" 	2421
scalar Inet.sas0.host29.inetUser 	"Total packets sent" 	10
scalar Inet.sas0.host29.inetUser 	"Total bytes received" 	10751
scalar Inet.sas0.host29.inetUser 	"Total packets received" 	10
scalar Inet.sas0.host29.inetUser 	"Initiated sessions" 	6
scalar Inet.sas0.host29.inetUser 	"Total TCP bytes sent" 	2421
scalar Inet.sas0.host29.inetUser 	"Total TCP packets sent" 	10
scalar Inet.sas0.host29.inetUser 	"Total TCP bytes received" 	10751
scalar Inet.sas0.host29.inetUser 	"Total TCP packets received" 	10
scalar Inet.sas0.host29.inetUser 	"Initiated TCP sessions" 	6
scalar Inet.sas0.host29.inetUser 	"Total UDP bytes sent" 	0
scalar Inet.sas0.host29.inetUser 	"Total UDP packets sent" 	0
scalar Inet.sas0.host29.inetUser 	"Total UDP bytes received" 	0
scalar Inet.sas0.host29.inetUser 	"Total UDP packets received" 	0
scalar Inet.sas0.host29.inetUser 	"Initiated UDP sessions" 	0
scalar Inet.sas0.host29.inetUser 	"Total ICMP bytes sent" 	0
scalar Inet.sas0.host29.inetUser 	"Total ICMP packets sent" 	0
scalar Inet.sas0.host29.inetUser 	"Total ICMP bytes received" 	0
scalar Inet.sas0.host29.inetUser 	"Total ICMP packets received" 	0
scalar Inet.sas0.host29.inetUser 	"Initiated ICMP sessions" 	0
scalar Inet.sas0.host29.networkLayer.ip 	"Total packets" 	0
scalar Inet.sas0.host29.networkLayer.ip 	"TCP packets" 	0
scalar Inet.sas0.host29.networkLayer.ip 	"UDP packets" 	0
scalar Inet.sas0.host29.networkLayer.ip 	"ICMP packets" 	0
scalar Inet.sas0.host29.networkLayer.arp 	"ARP requests sent" 	0
scalar Inet.sas0.host29.networkLayer.arp 	"ARP replies sent" 	0
scalar Inet.sas0.host29.networkLayer.arp 	"ARP resolutions" 	0
scalar Inet.sas0.host29.networkLayer.arp 	"failed ARP resolutions" 	0
scalar Inet.sas0.host29.ppp[0].queue 	"packets received by queue" 	51
scalar Inet.sas0.host29.ppp[0].queue 	"packets dropped by queue" 	0
scalar Inet.sas0.host30.inetUser 	"Total bytes sent" 	1865
scalar Inet.sas0.host30.inetUser 	"Total packets sent" 	9
scalar Inet.sas0.host30.inetUser 	"Total bytes received" 	9031
scalar Inet.sas0.host30.inetUser 	"Total packets received" 	9
scalar Inet.sas0.host30.inetUser 	"Initiated sessions" 	7
scalar Inet.sas0.host30.inetUser 	"Total TCP bytes sent" 	1865
scalar Inet.sas0.host30.inetUser 	"Total TCP packets sent" 	9
scalar Inet.sas0.host30.inetUser 	"Total TCP bytes received" 	9031
scalar Inet.sas0.host30.inetUser 	"Total TCP packets received" 	9
scalar Inet.sas0.host30.inetUser 	"Initiated TCP sessions" 	7
scalar Inet.sas0.host30.inetUser 	"Total UDP bytes sent" 	0
scalar Inet.sas0.host30.inetUser 	"Total UDP packets sent" 	0
scalar Inet.sas0.host30.inetUser 	"Total UDP bytes received" 	0
scalar Inet.sas0.host30.inetUser 	"Total UDP packets received" 	0
scalar Inet.sas0.host30.inetUser 	"Initiated UDP sessions" 	0
scalar Inet.sas0.host30.inetUser 	"Total ICMP bytes sent" 	0
scalar Inet.sas0.host30.inetUser 	"Total ICMP packets sent" 	0
scalar Inet.sas0.host30.inetUser 	"Total ICMP bytes received" 	0
scalar Inet.sas0.host30.inetUser 	"Total ICMP packets received" 	0
scalar Inet.sas0.host30.inetUser 	"Initiated ICMP sessions" 	0
scalar Inet.sas0.host30.networkLayer.ip 	"Total packets" 	0
scalar Inet.sas0.host30.networkLayer.ip 	"TCP packets" 	0
scalar Inet.sas0.host30.networkLayer.ip 	"UDP packets" 	0
scalar Inet.sas0.host30.networkLayer.ip 	"ICMP packets" 	0
scalar Inet.sas0.host30.networkLayer.arp 	"ARP requests sent" 	0
scalar Inet.sas0.host30.networkLayer.arp 	"ARP replies sent" 	0
scalar Inet.sas0.host30.networkLayer.arp 	"ARP resolutions" 	0
scalar Inet.sas0.host30.networkLayer.arp 	"failed ARP resolutions" 	0
scalar Inet.sas0.host30.ppp[0].queue 	"packets received by queue" 	54
scalar Inet.sas0.host30.ppp[0].queue 	"packets dropped by queue" 	0
scalar Inet.sas0.host_DDoSZombie31.tribeFloodNetwork 	"Attack index" 	0
scalar Inet.sas0.host_DDoSZombie31.tribeFloodNetwork 	"Attack started" 	1001.9015717541
scalar Inet.sas0.host_DDoSZombie31.tribeFloodNetwork 	"Attack ended" 	3600
scalar Inet.sas0.host_DDoSZombie31.tribeFloodNetwork 	"Attack packets sent" 	8167
scalar Inet.sas0.host_DDoSZombie31.networkLayer.ip 	"Total packets" 	0
scalar Inet.sas0.host_DDoSZombie31.networkLayer.ip 	"TCP packets" 	0
scalar Inet.sas0.host_DDoSZombie31.networkLayer.ip 	"UDP packets" 	0
scalar Inet.sas0.host_DDoSZombie31.networkLayer.ip 	"ICMP packets" 	0
scalar Inet.sas0.host_DDoSZombie31.networkLayer.arp 	"ARP requests sent" 	0
scalar Inet.sas0.host_DDoSZombie31.networkLayer.arp 	"ARP replies sent" 	0
scalar Inet.sas0.host_DDoSZombie31.networkLayer.arp 	"ARP resolutions" 	0
scalar Inet.sas0.host_DDoSZombie31.networkLayer.arp 	"failed ARP resolutions" 	0
scalar Inet.sas0.host_DDoSZombie31.ppp[0].queue 	"packets received by queue" 	8167
scalar Inet.sas0.host_DDoSZombie31.ppp[0].queue 	"packets dropped by queue" 	0
scalar Inet.sas0.host32.inetUser 	"Total bytes sent" 	5433
scalar Inet.sas0.host32.inetUser 	"Total packets sent" 	16
scalar Inet.sas0.host32.inetUser 	"Total bytes received" 	75424
scalar Inet.sas0.host32.inetUser 	"Total packets received" 	16
scalar Inet.sas0.host32.inetUser 	"Initiated sessions" 	14
scalar Inet.sas0.host32.inetUser 	"Total TCP bytes sent" 	5433
scalar Inet.sas0.host32.inetUser 	"Total TCP packets sent" 	16
scalar Inet.sas0.host32.inetUser 	"Total TCP bytes received" 	75424
scalar Inet.sas0.host32.inetUser 	"Total TCP packets received" 	16
scalar Inet.sas0.host32.inetUser 	"Initiated TCP sessions" 	14
scalar Inet.sas0.host32.inetUser 	"Total UDP bytes sent" 	0
scalar Inet.sas0.host32.inetUser 	"Total UDP packets sent" 	0
scalar Inet.sas0.host32.inetUser 	"Total UDP bytes received" 	0
scalar Inet.sas0.host32.inetUser 	"Total UDP packets received" 	0
scalar Inet.sas0.host32.inetUser 	"Initiated UDP sessions" 	0
scalar Inet.sas0.host32.inetUser 	"Total ICMP bytes sent" 	0
scalar Inet.sas0.host32.inetUser 	"Total ICMP packets sent" 	0
scalar Inet.sas0.host32.inetUser 	"Total ICMP bytes received" 	0
scalar Inet.sas0.host32.inetUser 	"Total ICMP packets received" 	0
scalar Inet.sas0.host32.inetUser 	"Initiated ICMP sessions" 	0
scalar Inet.sas0.host32.networkLayer.ip 	"Total packets" 	0
scalar Inet.sas0.host32.networkLayer.ip 	"TCP packets" 	0
scalar Inet.sas0.host32.networkLayer.ip 	"UDP packets" 	0
scalar Inet.sas0.host32.networkLayer.ip 	"ICMP packets" 	0
scalar Inet.sas0.host32.networkLayer.arp 	"ARP requests sent" 	0
scalar Inet.sas0.host32.networkLayer.arp 	"ARP replies sent" 	0
scalar Inet.sas0.host32.networkLayer.arp 	"ARP resolutions" 	0
scalar Inet.sas0.host32.networkLayer.arp 	"failed ARP resolutions" 	0
scalar Inet.sas0.host32.ppp[0].queue 	"packets received by queue" 	153
scalar Inet.sas0.host32.ppp[0].queue 	"packets dropped by queue" 	0
scalar Inet.sas0.host33.inetUser 	"Total bytes sent" 	78691
scalar Inet.sas0.host33.inetUser 	"Total packets sent" 	15
scalar Inet.sas0.host33.inetUser 	"Total bytes received" 	74213
scalar Inet.sas0.host33.inetUser 	"Total packets received" 	15
scalar Inet.sas0.host33.inetUser 	"Initiated sessions" 	12
scalar Inet.sas0.host33.inetUser 	"Total TCP bytes sent" 	78691
scalar Inet.sas0.host33.inetUser 	"Total TCP packets sent" 	15
scalar Inet.sas0.host33.inetUser 	"Total TCP bytes received" 	74213
scalar Inet.sas0.host33.inetUser 	"Total TCP packets received" 	15
scalar Inet.sas0.host33.inetUser 	"Initiated TCP sessions" 	12
scalar Inet.sas0.host33.inetUser 	"Total UDP bytes sent" 	0
scalar Inet.sas0.host33.inetUser 	"Total UDP packets sent" 	0
scalar Inet.sas0.host33.inetUser 	"Total UDP bytes received" 	0
scalar Inet.sas0.host33.inetUser 	"Total UDP packets received" 	0
scalar Inet.sas0.host33.inetUser 	"Initiated UDP sessions" 	0
scalar Inet.sas0.host33.inetUser 	"Total ICMP bytes sent" 	0
scalar Inet.sas0.host33.inetUser 	"Total ICMP packets sent" 	0
scalar Inet.sas0.host33.inetUser 	"Total ICMP bytes received" 	0
scalar Inet.sas0.host33.inetUser 	"Total ICMP packets received" 	0
scalar Inet.sas0.host33.inetUser 	"Initiated ICMP sessions" 	0
scalar Inet.sas0.host33.networkLayer.ip 	"Total packets" 	0
scalar Inet.sas0.host33.networkLayer.ip 	"TCP packets" 	0
scalar Inet.sas0.host33.networkLayer.ip 	"UDP packets" 	0
scalar Inet.sas0.host33.networkLayer.ip 	"ICMP packets" 	0
scalar Inet.sas0.host33.networkLayer.arp 	"ARP requests sent" 	0
scalar Inet.sas0.host33.networkLayer.arp 	"ARP replies sent" 	0
scalar Inet.sas0.host33.networkLayer.arp 	"ARP resolutions" 	0
scalar Inet.sas0.host33.networkLayer.arp 	"failed ARP resolutions" 	0
scalar Inet.sas0.host33.ppp[0].queue 	"packets received by queue" 	216
scalar Inet.sas0.host33.ppp[0].queue 	"packets dropped by queue" 	0
scalar Inet.sas0.host34.inetUser 	"Total bytes sent" 	29475
scalar Inet.sas0.host34.inetUser 	"Total packets sent" 	13
scalar Inet.sas0.host34.inetUser 	"Total bytes received" 	17641
scalar Inet.sas0.host34.inetUser 	"Total packets received" 	13
scalar Inet.sas0.host34.inetUser 	"Initiated sessions" 	8
scalar Inet.sas0.host34.inetUser 	"Total TCP bytes sent" 	29475
scalar Inet.sas0.host34.inetUser 	"Total TCP packets sent" 	13
scalar Inet.sas0.host34.inetUser 	"Total TCP bytes received" 	17641
scalar Inet.sas0.host34.inetUser 	"Total TCP packets received" 	13
scalar Inet.sas0.host34.inetUser 	"Initiated TCP sessions" 	8
scalar Inet.sas0.host34.inetUser 	"Total UDP bytes sent" 	0
scalar Inet.sas0.host34.inetUser 	"Total UDP packets sent" 	0
scalar Inet.sas0.host34.inetUser 	"Total UDP bytes received" 	0
scalar Inet.sas0.host34.inetUser 	"Total UDP packets received" 	0
scalar Inet.sas0.host34.inetUser 	"Initiated UDP sessions" 	0
scalar Inet.sas0.host34.inetUser 	"Total ICMP bytes sent" 	0
scalar Inet.sas0.host34.inetUser 	"Total ICMP packets sent" 	0
scalar Inet.sas0.host34.inetUser 	"Total ICMP bytes received" 	0
scalar Inet.sas0.host34.inetUser 	"Total ICMP packets received" 	0
scalar Inet.sas0.host34.inetUser 	"Initiated ICMP sessions" 	0
scalar Inet.sas0.host34.networkLayer.ip 	"Total packets" 	0
scalar Inet.sas0.host34.networkLayer.ip 	"TCP packets" 	0
scalar Inet.sas0.host34.networkLayer.ip 	"UDP packets" 	0
scalar Inet.sas0.host34.networkLayer.ip 	"ICMP packets" 	0
scalar Inet.sas0.host34.networkLayer.arp 	"ARP requests sent" 	0
scalar Inet.sas0.host34.networkLayer.arp 	"ARP replies sent" 	0
scalar Inet.sas0.host34.networkLayer.arp 	"ARP resolutions" 	0
scalar Inet.sas0.host34.networkLayer.arp 	"failed ARP resolutions" 	0
scalar Inet.sas0.host34.ppp[0].queue 	"packets received by queue" 	93
scalar Inet.sas0.host34.ppp[0].queue 	"packets dropped by queue" 	0
scalar Inet.sas0.host35.inetUser 	"Total bytes sent" 	4054
scalar Inet.sas0.host35.inetUser 	"Total packets sent" 	19
scalar Inet.sas0.host35.inetUser 	"Total bytes received" 	139014
scalar Inet.sas0.host35.inetUser 	"Total packets received" 	19
scalar Inet.sas0.host35.inetUser 	"Initiated sessions" 	14
scalar Inet.sas0.host35.inetUser 	"Total TCP bytes sent" 	4054
scalar Inet.sas0.host35.inetUser 	"Total TCP packets sent" 	19
scalar Inet.sas0.host35.inetUser 	"Total TCP bytes received" 	139014
scalar Inet.sas0.host35.inetUser 	"Total TCP packets received" 	19
scalar Inet.sas0.host35.inetUser 	"Initiated TCP sessions" 	14
scalar Inet.sas0.host35.inetUser 	"Total UDP bytes sent" 	0
scalar Inet.sas0.host35.inetUser 	"Total UDP packets sent" 	0
scalar Inet.sas0.host35.inetUser 	"Total UDP bytes received" 	0
scalar Inet.sas0.host35.inetUser 	"Total UDP packets received" 	0
scalar Inet.sas0.host35.inetUser 	"Initiated UDP sessions" 	0
scalar Inet.sas0.host35.inetUser 	"Total ICMP bytes sent" 	0
scalar Inet.sas0.host35.inetUser 	"Total ICMP packets sent" 	0
scalar Inet.sas0.host35.inetUser 	"Total ICMP bytes received" 	0
scalar Inet.sas0.host35.inetUser 	"Total ICMP packets received" 	0
scalar Inet.sas0.host35.inetUser 	"Initiated ICMP sessions" 	0
scalar Inet.sas0.host35.networkLayer.ip 	"Total packets" 	0
scalar Inet.sas0.host35.networkLayer.ip 	"TCP packets" 	0
scalar Inet.sas0.host35.networkLayer.ip 	"UDP packets" 	0
scalar Inet.sas0.host35.networkLayer.ip 	"ICMP packets" 	0
scalar Inet.sas0.host35.networkLayer.arp 	"ARP requests sent" 	0
scalar Inet.sas0.host35.networkLayer.arp 	"ARP replies sent" 	0
scalar Inet.sas0.host35.networkLayer.arp 	"ARP resolutions" 	0
scalar Inet.sas0.host35.networkLayer.arp 	"failed ARP resolutions" 	0
scalar Inet.sas0.host35.ppp[0].queue 	"packets received by queue" 	220
scalar Inet.sas0.host35.ppp[0].queue 	"packets dropped by queue" 	0
scalar Inet.sas0.host36.inetUser 	"Total bytes sent" 	2046
scalar Inet.sas0.host36.inetUser 	"Total packets sent" 	10
scalar Inet.sas0.host36.inetUser 	"Total bytes received" 	10075
scalar Inet.sas0.host36.inetUser 	"Total packets received" 	10
scalar Inet.sas0.host36.inetUser 	"Initiated sessions" 	8
scalar Inet.sas0.host36.inetUser 	"Total TCP bytes sent" 	2046
scalar Inet.sas0.host36.inetUser 	"Total TCP packets sent" 	10
scalar Inet.sas0.host36.inetUser 	"Total TCP bytes received" 	10075
scalar Inet.sas0.host36.inetUser 	"Total TCP packets received" 	10
scalar Inet.sas0.host36.inetUser 	"Initiated TCP sessions" 	8
scalar Inet.sas0.host36.inetUser 	"Total UDP bytes sent" 	0
scalar Inet.sas0.host36.inetUser 	"Total UDP packets sent" 	0
scalar Inet.sas0.host36.inetUser 	"Total UDP bytes received" 	0
scalar Inet.sas0.host36.inetUser 	"Total UDP packets received" 	0
scalar Inet.sas0.host36.inetUser 	"Initiated UDP sessions" 	0
scalar Inet.sas0.host36.inetUser 	"Total ICMP bytes sent" 	0
scalar Inet.sas0.host36.inetUser 	"Total ICMP packets sent" 	0
scalar Inet.sas0.host36.inetUser 	"Total ICMP bytes received" 	0
scalar Inet.sas0.host36.inetUser 	"Total ICMP packets received" 	0
scalar Inet.sas0.host36.inetUser 	"Initiated ICMP sessions" 	0
scalar Inet.sas0.host36.networkLayer.ip 	"Total packets" 	0
scalar Inet.sas0.host36.networkLayer.ip 	"TCP packets" 	0
scalar Inet.sas0.host36.networkLayer.ip 	"UDP packets" 	0
scalar Inet.sas0.host36.networkLayer.ip 	"ICMP packets" 	0
scalar Inet.sas0.host36.networkLayer.arp 	"ARP requests sent" 	0
scalar Inet.sas0.host36.networkLayer.arp 	"ARP replies sent" 	0
scalar Inet.sas0.host36.networkLayer.arp 	"ARP resolutions" 	0
scalar Inet.sas0.host36.networkLayer.arp 	"failed ARP resolutions" 	0
scalar Inet.sas0.host36.ppp[0].queue 	"packets received by queue" 	60
scalar Inet.sas0.host36.ppp[0].queue 	"packets dropped by queue" 	0
scalar Inet.sas0.host37.inetUser 	"Total bytes sent" 	3770
scalar Inet.sas0.host37.inetUser 	"Total packets sent" 	12
scalar Inet.sas0.host37.inetUser 	"Total bytes received" 	12039
scalar Inet.sas0.host37.inetUser 	"Total packets received" 	12
scalar Inet.sas0.host37.inetUser 	"Initiated sessions" 	9
scalar Inet.sas0.host37.inetUser 	"Total TCP bytes sent" 	3770
scalar Inet.sas0.host37.inetUser 	"Total TCP packets sent" 	12
scalar Inet.sas0.host37.inetUser 	"Total TCP bytes received" 	12039
scalar Inet.sas0.host37.inetUser 	"Total TCP packets received" 	12
scalar Inet.sas0.host37.inetUser 	"Initiated TCP sessions" 	9
scalar Inet.sas0.host37.inetUser 	"Total UDP bytes sent" 	0
scalar Inet.sas0.host37.inetUser 	"Total UDP packets sent" 	0
scalar Inet.sas0.host37.inetUser 	"Total UDP bytes received" 	0
scalar Inet.sas0.host37.inetUser 	"Total UDP packets received" 	0
scalar Inet.sas0.host37.inetUser 	"Initiated UDP sessions" 	0
scalar Inet.sas0.host37.inetUser 	"Total ICMP bytes sent" 	0
scalar Inet.sas0.host37.inetUser 	"Total ICMP packets sent" 	0
scalar Inet.sas0.host37.inetUser 	"Total ICMP bytes received" 	0
scalar Inet.sas0.host37.inetUser 	"Total ICMP packets received" 	0
scalar Inet.sas0.host37.inetUser 	"Initiated ICMP sessions" 	0
scalar Inet.sas0.host37.networkLayer.ip 	"Total packets" 	0
scalar Inet.sas0.host37.networkLayer.ip 	"TCP packets" 	0
scalar Inet.sas0.host37.networkLayer.ip 	"UDP packets" 	0
scalar Inet.sas0.host37.networkLayer.ip 	"ICMP packets" 	0
scalar Inet.sas0.host37.networkLayer.arp 	"ARP requests sent" 	0
scalar Inet.sas0.host37.networkLayer.arp 	"ARP replies sent" 	0
scalar Inet.sas0.host37.networkLayer.arp 	"ARP resolutions" 	0
scalar Inet.sas0.host37.networkLayer.arp 	"failed ARP resolutions" 	0
scalar Inet.sas0.host37.ppp[0].queue 	"packets received by queue" 	67
scalar Inet.sas0.host37.ppp[0].queue 	"packets dropped by queue" 	0
scalar Inet.sas0.host_DDoSZombie38.tribeFloodNetwork 	"Attack index" 	0
scalar Inet.sas0.host_DDoSZombie38.tribeFloodNetwork 	"Attack started" 	1000.455446079
scalar Inet.sas0.host_DDoSZombie38.tribeFloodNetwork 	"Attack ended" 	3600
scalar Inet.sas0.host_DDoSZombie38.tribeFloodNetwork 	"Attack packets sent" 	8296
scalar Inet.sas0.host_DDoSZombie38.networkLayer.ip 	"Total packets" 	0
scalar Inet.sas0.host_DDoSZombie38.networkLayer.ip 	"TCP packets" 	0
scalar Inet.sas0.host_DDoSZombie38.networkLayer.ip 	"UDP packets" 	0
scalar Inet.sas0.host_DDoSZombie38.networkLayer.ip 	"ICMP packets" 	0
scalar Inet.sas0.host_DDoSZombie38.networkLayer.arp 	"ARP requests sent" 	0
scalar Inet.sas0.host_DDoSZombie38.networkLayer.arp 	"ARP replies sent" 	0
scalar Inet.sas0.host_DDoSZombie38.networkLayer.arp 	"ARP resolutions" 	0
scalar Inet.sas0.host_DDoSZombie38.networkLayer.arp 	"failed ARP resolutions" 	0
scalar Inet.sas0.host_DDoSZombie38.ppp[0].queue 	"packets received by queue" 	8296
scalar Inet.sas0.host_DDoSZombie38.ppp[0].queue 	"packets dropped by queue" 	0
scalar Inet.sas0.host39.inetUser 	"Total bytes sent" 	7972
scalar Inet.sas0.host39.inetUser 	"Total packets sent" 	13
scalar Inet.sas0.host39.inetUser 	"Total bytes received" 	89920
scalar Inet.sas0.host39.inetUser 	"Total packets received" 	13
scalar Inet.sas0.host39.inetUser 	"Initiated sessions" 	11
scalar Inet.sas0.host39.inetUser 	"Total TCP bytes sent" 	7972
scalar Inet.sas0.host39.inetUser 	"Total TCP packets sent" 	13
scalar Inet.sas0.host39.inetUser 	"Total TCP bytes received" 	89920
scalar Inet.sas0.host39.inetUser 	"Total TCP packets received" 	13
scalar Inet.sas0.host39.inetUser 	"Initiated TCP sessions" 	11
scalar Inet.sas0.host39.inetUser 	"Total UDP bytes sent" 	0
scalar Inet.sas0.host39.inetUser 	"Total UDP packets sent" 	0
scalar Inet.sas0.host39.inetUser 	"Total UDP bytes received" 	0
scalar Inet.sas0.host39.inetUser 	"Total UDP packets received" 	0
scalar Inet.sas0.host39.inetUser 	"Initiated UDP sessions" 	0
scalar Inet.sas0.host39.inetUser 	"Total ICMP bytes sent" 	0
scalar Inet.sas0.host39.inetUser 	"Total ICMP packets sent" 	0
scalar Inet.sas0.host39.inetUser 	"Total ICMP bytes received" 	0
scalar Inet.sas0.host39.inetUser 	"Total ICMP packets received" 	0
scalar Inet.sas0.host39.inetUser 	"Initiated ICMP sessions" 	0
scalar Inet.sas0.host39.networkLayer.ip 	"Total packets" 	0
scalar Inet.sas0.host39.networkLayer.ip 	"TCP packets" 	0
scalar Inet.sas0.host39.networkLayer.ip 	"UDP packets" 	0
scalar Inet.sas0.host39.networkLayer.ip 	"ICMP packets" 	0
scalar Inet.sas0.host39.networkLayer.arp 	"ARP requests sent" 	0
scalar Inet.sas0.host39.networkLayer.arp 	"ARP replies sent" 	0
scalar Inet.sas0.host39.networkLayer.arp 	"ARP resolutions" 	0
scalar Inet.sas0.host39.networkLayer.arp 	"failed ARP resolutions" 	0
scalar Inet.sas0.host39.ppp[0].queue 	"packets received by queue" 	159
scalar Inet.sas0.host39.ppp[0].queue 	"packets dropped by queue" 	0
scalar Inet.sas0.host_WebServer40.networkLayer.ip 	"Total packets" 	0
scalar Inet.sas0.host_WebServer40.networkLayer.ip 	"TCP packets" 	0
scalar Inet.sas0.host_WebServer40.networkLayer.ip 	"UDP packets" 	0
scalar Inet.sas0.host_WebServer40.networkLayer.ip 	"ICMP packets" 	0
scalar Inet.sas0.host_WebServer40.networkLayer.arp 	"ARP requests sent" 	0
scalar Inet.sas0.host_WebServer40.networkLayer.arp 	"ARP replies sent" 	0
scalar Inet.sas0.host_WebServer40.networkLayer.arp 	"ARP resolutions" 	0
scalar Inet.sas0.host_WebServer40.networkLayer.arp 	"failed ARP resolutions" 	0
scalar Inet.sas0.host_WebServer40.ppp[0].queue 	"packets received by queue" 	1037
scalar Inet.sas0.host_WebServer40.ppp[0].queue 	"packets dropped by queue" 	0
scalar Inet.sas0.host41.inetUser 	"Total bytes sent" 	9155
scalar Inet.sas0.host41.inetUser 	"Total packets sent" 	6
scalar Inet.sas0.host41.inetUser 	"Total bytes received" 	10626
scalar Inet.sas0.host41.inetUser 	"Total packets received" 	6
scalar Inet.sas0.host41.inetUser 	"Initiated sessions" 	4
scalar Inet.sas0.host41.inetUser 	"Total TCP bytes sent" 	9155
scalar Inet.sas0.host41.inetUser 	"Total TCP packets sent" 	6
scalar Inet.sas0.host41.inetUser 	"Total TCP bytes received" 	10626
scalar Inet.sas0.host41.inetUser 	"Total TCP packets received" 	6
scalar Inet.sas0.host41.inetUser 	"Initiated TCP sessions" 	4
scalar Inet.sas0.host41.inetUser 	"Total UDP bytes sent" 	0
scalar Inet.sas0.host41.inetUser 	"Total UDP packets sent" 	0
scalar Inet.sas0.host41.inetUser 	"Total UDP bytes received" 	0
scalar Inet.sas0.host41.inetUser 	"Total UDP packets received" 	0
scalar Inet.sas0.host41.inetUser 	"Initiated UDP sessions" 	0
scalar Inet.sas0.host41.inetUser 	"Total ICMP bytes sent" 	0
scalar Inet.sas0.host41.inetUser 	"Total ICMP packets sent" 	0
scalar Inet.sas0.host41.inetUser 	"Total ICMP bytes received" 	0
scalar Inet.sas0.host41.inetUser 	"Total ICMP packets received" 	0
scalar Inet.sas0.host41.inetUser 	"Initiated ICMP sessions" 	0
scalar Inet.sas0.host41.networkLayer.ip 	"Total packets" 	0
scalar Inet.sas0.host41.networkLayer.ip 	"TCP packets" 	0
scalar Inet.sas0.host41.networkLayer.ip 	"UDP packets" 	0
scalar Inet.sas0.host41.networkLayer.ip 	"ICMP packets" 	0
scalar Inet.sas0.host41.networkLayer.arp 	"ARP requests sent" 	0
scalar Inet.sas0.host41.networkLayer.arp 	"ARP replies sent" 	0
scalar Inet.sas0.host41.networkLayer.arp 	"ARP resolutions" 	0
scalar Inet.sas0.host41.networkLayer.arp 	"failed ARP resolutions" 	0
scalar Inet.sas0.host41.ppp[0].queue 	"packets received by queue" 	45
scalar Inet.sas0.host41.ppp[0].queue 	"packets dropped by queue" 	0
scalar Inet.sas0.host42.inetUser 	"Total bytes sent" 	63371
scalar Inet.sas0.host42.inetUser 	"Total packets sent" 	16
scalar Inet.sas0.host42.inetUser 	"Total bytes received" 	18008
scalar Inet.sas0.host42.inetUser 	"Total packets received" 	16
scalar Inet.sas0.host42.inetUser 	"Initiated sessions" 	13
scalar Inet.sas0.host42.inetUser 	"Total TCP bytes sent" 	63371
scalar Inet.sas0.host42.inetUser 	"Total TCP packets sent" 	16
scalar Inet.sas0.host42.inetUser 	"Total TCP bytes received" 	18008
scalar Inet.sas0.host42.inetUser 	"Total TCP packets received" 	16
scalar Inet.sas0.host42.inetUser 	"Initiated TCP sessions" 	13
scalar Inet.sas0.host42.inetUser 	"Total UDP bytes sent" 	0
scalar Inet.sas0.host42.inetUser 	"Total UDP packets sent" 	0
scalar Inet.sas0.host42.inetUser 	"Total UDP bytes received" 	0
scalar Inet.sas0.host42.inetUser 	"Total UDP packets received" 	0
scalar Inet.sas0.host42.inetUser 	"Initiated UDP sessions" 	0
scalar Inet.sas0.host42.inetUser 	"Total ICMP bytes sent" 	0
scalar Inet.sas0.host42.inetUser 	"Total ICMP packets sent" 	0
scalar Inet.sas0.host42.inetUser 	"Total ICMP bytes received" 	0
scalar Inet.sas0.host42.inetUser 	"Total ICMP packets received" 	0
scalar Inet.sas0.host42.inetUser 	"Initiated ICMP sessions" 	0
scalar Inet.sas0.host42.networkLayer.ip 	"Total packets" 	0
scalar Inet.sas0.host42.networkLayer.ip 	"TCP packets" 	0
scalar Inet.sas0.host42.networkLayer.ip 	"UDP packets" 	0
scalar Inet.sas0.host42.networkLayer.ip 	"ICMP packets" 	0
scalar Inet.sas0.host42.networkLayer.arp 	"ARP requests sent" 	0
scalar Inet.sas0.host42.networkLayer.arp 	"ARP replies sent" 	0
scalar Inet.sas0.host42.networkLayer.arp 	"ARP resolutions" 	0
scalar Inet.sas0.host42.networkLayer.arp 	"failed ARP resolutions" 	0
scalar Inet.sas0.host42.ppp[0].queue 	"packets received by queue" 	159
scalar Inet.sas0.host42.ppp[0].queue 	"packets dropped by queue" 	0
scalar Inet.sas0.host43.inetUser 	"Total bytes sent" 	1302
scalar Inet.sas0.host43.inetUser 	"Total packets sent" 	5
scalar Inet.sas0.host43.inetUser 	"Total bytes received" 	5363
scalar Inet.sas0.host43.inetUser 	"Total packets received" 	5
scalar Inet.sas0.host43.inetUser 	"Initiated sessions" 	4
scalar Inet.sas0.host43.inetUser 	"Total TCP bytes sent" 	1302
scalar Inet.sas0.host43.inetUser 	"Total TCP packets sent" 	5
scalar Inet.sas0.host43.inetUser 	"Total TCP bytes received" 	5363
scalar Inet.sas0.host43.inetUser 	"Total TCP packets received" 	5
scalar Inet.sas0.host43.inetUser 	"Initiated TCP sessions" 	4
scalar Inet.sas0.host43.inetUser 	"Total UDP bytes sent" 	0
scalar Inet.sas0.host43.inetUser 	"Total UDP packets sent" 	0
scalar Inet.sas0.host43.inetUser 	"Total UDP bytes received" 	0
scalar Inet.sas0.host43.inetUser 	"Total UDP packets received" 	0
scalar Inet.sas0.host43.inetUser 	"Initiated UDP sessions" 	0
scalar Inet.sas0.host43.inetUser 	"Total ICMP bytes sent" 	0
scalar Inet.sas0.host43.inetUser 	"Total ICMP packets sent" 	0
scalar Inet.sas0.host43.inetUser 	"Total ICMP bytes received" 	0
scalar Inet.sas0.host43.inetUser 	"Total ICMP packets received" 	0
scalar Inet.sas0.host43.inetUser 	"Initiated ICMP sessions" 	0
scalar Inet.sas0.host43.networkLayer.ip 	"Total packets" 	0
scalar Inet.sas0.host43.networkLayer.ip 	"TCP packets" 	0
scalar Inet.sas0.host43.networkLayer.ip 	"UDP packets" 	0
scalar Inet.sas0.host43.networkLayer.ip 	"ICMP packets" 	0
scalar Inet.sas0.host43.networkLayer.arp 	"ARP requests sent" 	0
scalar Inet.sas0.host43.networkLayer.arp 	"ARP replies sent" 	0
scalar Inet.sas0.host43.networkLayer.arp 	"ARP resolutions" 	0
scalar Inet.sas0.host43.networkLayer.arp 	"failed ARP resolutions" 	0
scalar Inet.sas0.host43.ppp[0].queue 	"packets received by queue" 	35
scalar Inet.sas0.host43.ppp[0].queue 	"packets dropped by queue" 	0
scalar Inet.sas0.host44.inetUser 	"Total bytes sent" 	12615
scalar Inet.sas0.host44.inetUser 	"Total packets sent" 	4
scalar Inet.sas0.host44.inetUser 	"Total bytes received" 	63289
scalar Inet.sas0.host44.inetUser 	"Total packets received" 	4
scalar Inet.sas0.host44.inetUser 	"Initiated sessions" 	2
scalar Inet.sas0.host44.inetUser 	"Total TCP bytes sent" 	12615
scalar Inet.sas0.host44.inetUser 	"Total TCP packets sent" 	4
scalar Inet.sas0.host44.inetUser 	"Total TCP bytes received" 	63289
scalar Inet.sas0.host44.inetUser 	"Total TCP packets received" 	4
scalar Inet.sas0.host44.inetUser 	"Initiated TCP sessions" 	2
scalar Inet.sas0.host44.inetUser 	"Total UDP bytes sent" 	0
scalar Inet.sas0.host44.inetUser 	"Total UDP packets sent" 	0
scalar Inet.sas0.host44.inetUser 	"Total UDP bytes received" 	0
scalar Inet.sas0.host44.inetUser 	"Total UDP packets received" 	0
scalar Inet.sas0.host44.inetUser 	"Initiated UDP sessions" 	0
scalar Inet.sas0.host44.inetUser 	"Total ICMP bytes sent" 	0
scalar Inet.sas0.host44.inetUser 	"Total ICMP packets sent" 	0
scalar Inet.sas0.host44.inetUser 	"Total ICMP bytes received" 	0
scalar Inet.sas0.host44.inetUser 	"Total ICMP packets received" 	0
scalar Inet.sas0.host44.inetUser 	"Initiated ICMP sessions" 	0
scalar Inet.sas0.host44.networkLayer.ip 	"Total packets" 	0
scalar Inet.sas0.host44.networkLayer.ip 	"TCP packets" 	0
scalar Inet.sas0.host44.networkLayer.ip 	"UDP packets" 	0
scalar Inet.sas0.host44.networkLayer.ip 	"ICMP packets" 	0
scalar Inet.sas0.host44.networkLayer.arp 	"ARP requests sent" 	0
scalar Inet.sas0.host44.networkLayer.arp 	"ARP replies sent" 	0
scalar Inet.sas0.host44.networkLayer.arp 	"ARP resolutions" 	0
scalar Inet.sas0.host44.networkLayer.arp 	"failed ARP resolutions" 	0
scalar Inet.sas0.host44.ppp[0].queue 	"packets received by queue" 	90
scalar Inet.sas0.host44.ppp[0].queue 	"packets dropped by queue" 	0
scalar Inet.sas0.host_DDoSZombie45.tribeFloodNetwork 	"Attack index" 	0
scalar Inet.sas0.host_DDoSZombie45.tribeFloodNetwork 	"Attack started" 	1002.2320918762
scalar Inet.sas0.host_DDoSZombie45.tribeFloodNetwork 	"Attack ended" 	3600
scalar Inet.sas0.host_DDoSZombie45.tribeFloodNetwork 	"Attack packets sent" 	8175
scalar Inet.sas0.host_DDoSZombie45.networkLayer.ip 	"Total packets" 	0
scalar Inet.sas0.host_DDoSZombie45.networkLayer.ip 	"TCP packets" 	0
scalar Inet.sas0.host_DDoSZombie45.networkLayer.ip 	"UDP packets" 	0
scalar Inet.sas0.host_DDoSZombie45.networkLayer.ip 	"ICMP packets" 	0
scalar Inet.sas0.host_DDoSZombie45.networkLayer.arp 	"ARP requests sent" 	0
scalar Inet.sas0.host_DDoSZombie45.networkLayer.arp 	"ARP replies sent" 	0
scalar Inet.sas0.host_DDoSZombie45.networkLayer.arp 	"ARP resolutions" 	0
scalar Inet.sas0.host_DDoSZombie45.networkLayer.arp 	"failed ARP resolutions" 	0
scalar Inet.sas0.host_DDoSZombie45.ppp[0].queue 	"packets received by queue" 	8175
scalar Inet.sas0.host_DDoSZombie45.ppp[0].queue 	"packets dropped by queue" 	0
scalar Inet.sas0.host46.inetUser 	"Total bytes sent" 	657
scalar Inet.sas0.host46.inetUser 	"Total packets sent" 	3
scalar Inet.sas0.host46.inetUser 	"Total bytes received" 	3519
scalar Inet.sas0.host46.inetUser 	"Total packets received" 	3
scalar Inet.sas0.host46.inetUser 	"Initiated sessions" 	3
scalar Inet.sas0.host46.inetUser 	"Total TCP bytes sent" 	657
scalar Inet.sas0.host46.inetUser 	"Total TCP packets sent" 	3
scalar Inet.sas0.host46.inetUser 	"Total TCP bytes received" 	3519
scalar Inet.sas0.host46.inetUser 	"Total TCP packets received" 	3
scalar Inet.sas0.host46.inetUser 	"Initiated TCP sessions" 	3
scalar Inet.sas0.host46.inetUser 	"Total UDP bytes sent" 	0
scalar Inet.sas0.host46.inetUser 	"Total UDP packets sent" 	0
scalar Inet.sas0.host46.inetUser 	"Total UDP bytes received" 	0
scalar Inet.sas0.host46.inetUser 	"Total UDP packets received" 	0
scalar Inet.sas0.host46.inetUser 	"Initiated UDP sessions" 	0
scalar Inet.sas0.host46.inetUser 	"Total ICMP bytes sent" 	0
scalar Inet.sas0.host46.inetUser 	"Total ICMP packets sent" 	0
scalar Inet.sas0.host46.inetUser 	"Total ICMP bytes received" 	0
scalar Inet.sas0.host46.inetUser 	"Total ICMP packets received" 	0
scalar Inet.sas0.host46.inetUser 	"Initiated ICMP sessions" 	0
scalar Inet.sas0.host46.networkLayer.ip 	"Total packets" 	0
scalar Inet.sas0.host46.networkLayer.ip 	"TCP packets" 	0
scalar Inet.sas0.host46.networkLayer.ip 	"UDP packets" 	0
scalar Inet.sas0.host46.networkLayer.ip 	"ICMP packets" 	0
scalar Inet.sas0.host46.networkLayer.arp 	"ARP requests sent" 	0
scalar Inet.sas0.host46.networkLayer.arp 	"ARP replies sent" 	0
scalar Inet.sas0.host46.networkLayer.arp 	"ARP resolutions" 	0
scalar Inet.sas0.host46.networkLayer.arp 	"failed ARP resolutions" 	0
scalar Inet.sas0.host46.ppp[0].queue 	"packets received by queue" 	27
scalar Inet.sas0.host46.ppp[0].queue 	"packets dropped by queue" 	0
scalar Inet.sas0.host_WebServer47.networkLayer.ip 	"Total packets" 	0
scalar Inet.sas0.host_WebServer47.networkLayer.ip 	"TCP packets" 	0
scalar Inet.sas0.host_WebServer47.networkLayer.ip 	"UDP packets" 	0
scalar Inet.sas0.host_WebServer47.networkLayer.ip 	"ICMP packets" 	0
scalar Inet.sas0.host_WebServer47.networkLayer.arp 	"ARP requests sent" 	0
scalar Inet.sas0.host_WebServer47.networkLayer.arp 	"ARP replies sent" 	0
scalar Inet.sas0.host_WebServer47.networkLayer.arp 	"ARP resolutions" 	0
scalar Inet.sas0.host_WebServer47.networkLayer.arp 	"failed ARP resolutions" 	0
scalar Inet.sas0.host_WebServer47.ppp[0].queue 	"packets received by queue" 	1070
scalar Inet.sas0.host_WebServer47.ppp[0].queue 	"packets dropped by queue" 	0
scalar Inet.sas0.host48.inetUser 	"Total bytes sent" 	60945
scalar Inet.sas0.host48.inetUser 	"Total packets sent" 	5
scalar Inet.sas0.host48.inetUser 	"Total bytes received" 	5144
scalar Inet.sas0.host48.inetUser 	"Total packets received" 	5
scalar Inet.sas0.host48.inetUser 	"Initiated sessions" 	4
scalar Inet.sas0.host48.inetUser 	"Total TCP bytes sent" 	60945
scalar Inet.sas0.host48.inetUser 	"Total TCP packets sent" 	5
scalar Inet.sas0.host48.inetUser 	"Total TCP bytes received" 	5144
scalar Inet.sas0.host48.inetUser 	"Total TCP packets received" 	5
scalar Inet.sas0.host48.inetUser 	"Initiated TCP sessions" 	4
scalar Inet.sas0.host48.inetUser 	"Total UDP bytes sent" 	0
scalar Inet.sas0.host48.inetUser 	"Total UDP packets sent" 	0
scalar Inet.sas0.host48.inetUser 	"Total UDP bytes received" 	0
scalar Inet.sas0.host48.inetUser 	"Total UDP packets received" 	0
scalar Inet.sas0.host48.inetUser 	"Initiated UDP sessions" 	0
scalar Inet.sas0.host48.inetUser 	"Total ICMP bytes sent" 	0
scalar Inet.sas0.host48.inetUser 	"Total ICMP packets sent" 	0
scalar Inet.sas0.host48.inetUser 	"Total ICMP bytes received" 	0
scalar Inet.sas0.host48.inetUser 	"Total ICMP packets received" 	0
scalar Inet.sas0.host48.inetUser 	"Initiated ICMP sessions" 	0
scalar Inet.sas0.host48.networkLayer.ip 	"Total packets" 	0
scalar Inet.sas0.host48.networkLayer.ip 	"TCP packets" 	0
scalar Inet.sas0.host48.networkLayer.ip 	"UDP packets" 	0
scalar Inet.sas0.host48.networkLayer.ip 	"ICMP packets" 	0
scalar Inet.sas0.host48.networkLayer.arp 	"ARP requests sent" 	0
scalar Inet.sas0.host48.networkLayer.arp 	"ARP replies sent" 	0
scalar Inet.sas0.host48.networkLayer.arp 	"ARP resolutions" 	0
scalar Inet.sas0.host48.networkLayer.arp 	"failed ARP resolutions" 	0
scalar Inet.sas0.host48.ppp[0].queue 	"packets received by queue" 	91
scalar Inet.sas0.host48.ppp[0].queue 	"packets dropped by queue" 	0
scalar Inet.sas0.host_WebServer49.networkLayer.ip 	"Total packets" 	0
scalar Inet.sas0.host_WebServer49.networkLayer.ip 	"TCP packets" 	0
scalar Inet.sas0.host_WebServer49.networkLayer.ip 	"UDP packets" 	0
scalar Inet.sas0.host_WebServer49.networkLayer.ip 	"ICMP packets" 	0
scalar Inet.sas0.host_WebServer49.networkLayer.arp 	"ARP requests sent" 	0
scalar Inet.sas0.host_WebServer49.networkLayer.arp 	"ARP replies sent" 	0
scalar Inet.sas0.host_WebServer49.networkLayer.arp 	"ARP resolutions" 	0
scalar Inet.sas0.host_WebServer49.networkLayer.arp 	"failed ARP resolutions" 	0
scalar Inet.sas0.host_WebServer49.ppp[0].queue 	"packets received by queue" 	1444
scalar Inet.sas0.host_WebServer49.ppp[0].queue 	"packets dropped by queue" 	0
scalar Inet.sas0.host50.inetUser 	"Total bytes sent" 	3218
scalar Inet.sas0.host50.inetUser 	"Total packets sent" 	8
scalar Inet.sas0.host50.inetUser 	"Total bytes received" 	8222
scalar Inet.sas0.host50.inetUser 	"Total packets received" 	8
scalar Inet.sas0.host50.inetUser 	"Initiated sessions" 	8
scalar Inet.sas0.host50.inetUser 	"Total TCP bytes sent" 	3218
scalar Inet.sas0.host50.inetUser 	"Total TCP packets sent" 	8
scalar Inet.sas0.host50.inetUser 	"Total TCP bytes received" 	8222
scalar Inet.sas0.host50.inetUser 	"Total TCP packets received" 	8
scalar Inet.sas0.host50.inetUser 	"Initiated TCP sessions" 	8
scalar Inet.sas0.host50.inetUser 	"Total UDP bytes sent" 	0
scalar Inet.sas0.host50.inetUser 	"Total UDP packets sent" 	0
scalar Inet.sas0.host50.inetUser 	"Total UDP bytes received" 	0
scalar Inet.sas0.host50.inetUser 	"Total UDP packets received" 	0
scalar Inet.sas0.host50.inetUser 	"Initiated UDP sessions" 	0
scalar Inet.sas0.host50.inetUser 	"Total ICMP bytes sent" 	0
scalar Inet.sas0.host50.inetUser 	"Total ICMP packets sent" 	0
scalar Inet.sas0.host50.inetUser 	"Total ICMP bytes received" 	0
[...]
scalar Inet.sas19.host53.inetUser 	"Total TCP bytes sent" 	2502
scalar Inet.sas19.host53.inetUser 	"Total TCP packets sent" 	11
scalar Inet.sas19.host53.inetUser 	"Total TCP bytes received" 	13324
scalar Inet.sas19.host53.inetUser 	"Total TCP packets received" 	11
scalar Inet.sas19.host53.inetUser 	"Initiated TCP sessions" 	7
scalar Inet.sas19.host53.inetUser 	"Total UDP bytes sent" 	0
scalar Inet.sas19.host53.inetUser 	"Total UDP packets sent" 	0
scalar Inet.sas19.host53.inetUser 	"Total UDP bytes received" 	0
scalar Inet.sas19.host53.inetUser 	"Total UDP packets received" 	0
scalar Inet.sas19.host53.inetUser 	"Initiated UDP sessions" 	0
scalar Inet.sas19.host53.inetUser 	"Total ICMP bytes sent" 	0
scalar Inet.sas19.host53.inetUser 	"Total ICMP packets sent" 	0
scalar Inet.sas19.host53.inetUser 	"Total ICMP bytes received" 	0
scalar Inet.sas19.host53.inetUser 	"Total ICMP packets received" 	0
scalar Inet.sas19.host53.inetUser 	"Initiated ICMP sessions" 	0
scalar Inet.sas19.host53.networkLayer.ip 	"Total packets" 	0
scalar Inet.sas19.host53.networkLayer.ip 	"TCP packets" 	0
scalar Inet.sas19.host53.networkLayer.ip 	"UDP packets" 	0
scalar Inet.sas19.host53.networkLayer.ip 	"ICMP packets" 	0
scalar Inet.sas19.host53.networkLayer.arp 	"ARP requests sent" 	0
scalar Inet.sas19.host53.networkLayer.arp 	"ARP replies sent" 	0
scalar Inet.sas19.host53.networkLayer.arp 	"ARP resolutions" 	0
scalar Inet.sas19.host53.networkLayer.arp 	"failed ARP resolutions" 	0
scalar Inet.sas19.host53.ppp[0].queue 	"packets received by queue" 	57
scalar Inet.sas19.host53.ppp[0].queue 	"packets dropped by queue" 	0
scalar Inet.sas19.host_DDoSZombie54.tribeFloodNetwork 	"Attack index" 	0
scalar Inet.sas19.host_DDoSZombie54.tribeFloodNetwork 	"Attack started" 	1001.7230917636
scalar Inet.sas19.host_DDoSZombie54.tribeFloodNetwork 	"Attack ended" 	3600
scalar Inet.sas19.host_DDoSZombie54.tribeFloodNetwork 	"Attack packets sent" 	8206
scalar Inet.sas19.host_DDoSZombie54.networkLayer.ip 	"Total packets" 	0
scalar Inet.sas19.host_DDoSZombie54.networkLayer.ip 	"TCP packets" 	0
scalar Inet.sas19.host_DDoSZombie54.networkLayer.ip 	"UDP packets" 	0
scalar Inet.sas19.host_DDoSZombie54.networkLayer.ip 	"ICMP packets" 	0
scalar Inet.sas19.host_DDoSZombie54.networkLayer.arp 	"ARP requests sent" 	0
scalar Inet.sas19.host_DDoSZombie54.networkLayer.arp 	"ARP replies sent" 	0
scalar Inet.sas19.host_DDoSZombie54.networkLayer.arp 	"ARP resolutions" 	0
scalar Inet.sas19.host_DDoSZombie54.networkLayer.arp 	"failed ARP resolutions" 	0
scalar Inet.sas19.host_DDoSZombie54.ppp[0].queue 	"packets received by queue" 	8206
scalar Inet.sas19.host_DDoSZombie54.ppp[0].queue 	"packets dropped by queue" 	0
scalar Inet.sas19.host55.inetUser 	"Total bytes sent" 	11660
scalar Inet.sas19.host55.inetUser 	"Total packets sent" 	7
scalar Inet.sas19.host55.inetUser 	"Total bytes received" 	7241
scalar Inet.sas19.host55.inetUser 	"Total packets received" 	7
scalar Inet.sas19.host55.inetUser 	"Initiated sessions" 	7
scalar Inet.sas19.host55.inetUser 	"Total TCP bytes sent" 	11660
scalar Inet.sas19.host55.inetUser 	"Total TCP packets sent" 	7
scalar Inet.sas19.host55.inetUser 	"Total TCP bytes received" 	7241
scalar Inet.sas19.host55.inetUser 	"Total TCP packets received" 	7
scalar Inet.sas19.host55.inetUser 	"Initiated TCP sessions" 	7
scalar Inet.sas19.host55.inetUser 	"Total UDP bytes sent" 	0
scalar Inet.sas19.host55.inetUser 	"Total UDP packets sent" 	0
scalar Inet.sas19.host55.inetUser 	"Total UDP bytes received" 	0
scalar Inet.sas19.host55.inetUser 	"Total UDP packets received" 	0
scalar Inet.sas19.host55.inetUser 	"Initiated UDP sessions" 	0
scalar Inet.sas19.host55.inetUser 	"Total ICMP bytes sent" 	0
scalar Inet.sas19.host55.inetUser 	"Total ICMP packets sent" 	0
scalar Inet.sas19.host55.inetUser 	"Total ICMP bytes received" 	0
scalar Inet.sas19.host55.inetUser 	"Total ICMP packets received" 	0
scalar Inet.sas19.host55.inetUser 	"Initiated ICMP sessions" 	0
scalar Inet.sas19.host55.networkLayer.ip 	"Total packets" 	0
scalar Inet.sas19.host55.networkLayer.ip 	"TCP packets" 	0
scalar Inet.sas19.host55.networkLayer.ip 	"UDP packets" 	0
scalar Inet.sas19.host55.networkLayer.ip 	"ICMP packets" 	0
scalar Inet.sas19.host55.networkLayer.arp 	"ARP requests sent" 	0
scalar Inet.sas19.host55.networkLayer.arp 	"ARP replies sent" 	0
scalar Inet.sas19.host55.networkLayer.arp 	"ARP resolutions" 	0
scalar Inet.sas19.host55.networkLayer.arp 	"failed ARP resolutions" 	0
scalar Inet.sas19.host55.ppp[0].queue 	"packets received by queue" 	60
scalar Inet.sas19.host55.ppp[0].queue 	"packets dropped by queue" 	0
scalar Inet.sas19.host56.inetUser 	"Total bytes sent" 	125898
scalar Inet.sas19.host56.inetUser 	"Total packets sent" 	17
scalar Inet.sas19.host56.inetUser 	"Total bytes received" 	17337
scalar Inet.sas19.host56.inetUser 	"Total packets received" 	17
scalar Inet.sas19.host56.inetUser 	"Initiated sessions" 	14
scalar Inet.sas19.host56.inetUser 	"Total TCP bytes sent" 	125898
scalar Inet.sas19.host56.inetUser 	"Total TCP packets sent" 	17
scalar Inet.sas19.host56.inetUser 	"Total TCP bytes received" 	17337
scalar Inet.sas19.host56.inetUser 	"Total TCP packets received" 	17
scalar Inet.sas19.host56.inetUser 	"Initiated TCP sessions" 	14
scalar Inet.sas19.host56.inetUser 	"Total UDP bytes sent" 	0
scalar Inet.sas19.host56.inetUser 	"Total UDP packets sent" 	0
scalar Inet.sas19.host56.inetUser 	"Total UDP bytes received" 	0
scalar Inet.sas19.host56.inetUser 	"Total UDP packets received" 	0
scalar Inet.sas19.host56.inetUser 	"Initiated UDP sessions" 	0
scalar Inet.sas19.host56.inetUser 	"Total ICMP bytes sent" 	0
scalar Inet.sas19.host56.inetUser 	"Total ICMP packets sent" 	0
scalar Inet.sas19.host56.inetUser 	"Total ICMP bytes received" 	0
scalar Inet.sas19.host56.inetUser 	"Total ICMP packets received" 	0
scalar Inet.sas19.host56.inetUser 	"Initiated ICMP sessions" 	0
scalar Inet.sas19.host56.networkLayer.ip 	"Total packets" 	0
scalar Inet.sas19.host56.networkLayer.ip 	"TCP packets" 	0
scalar Inet.sas19.host56.networkLayer.ip 	"UDP packets" 	0
scalar Inet.sas19.host56.networkLayer.ip 	"ICMP packets" 	0
scalar Inet.sas19.host56.networkLayer.arp 	"ARP requests sent" 	0
scalar Inet.sas19.host56.networkLayer.arp 	"ARP replies sent" 	0
scalar Inet.sas19.host56.networkLayer.arp 	"ARP resolutions" 	0
scalar Inet.sas19.host56.networkLayer.arp 	"failed ARP resolutions" 	0
scalar Inet.sas19.host56.ppp[0].queue 	"packets received by queue" 	221
scalar Inet.sas19.host56.ppp[0].queue 	"packets dropped by queue" 	0
scalar Inet.sas19.host57.inetUser 	"Total bytes sent" 	1158
scalar Inet.sas19.host57.inetUser 	"Total packets sent" 	5
scalar Inet.sas19.host57.inetUser 	"Total bytes received" 	5532
scalar Inet.sas19.host57.inetUser 	"Total packets received" 	5
scalar Inet.sas19.host57.inetUser 	"Initiated sessions" 	7
scalar Inet.sas19.host57.inetUser 	"Total TCP bytes sent" 	1158
scalar Inet.sas19.host57.inetUser 	"Total TCP packets sent" 	5
scalar Inet.sas19.host57.inetUser 	"Total TCP bytes received" 	5532
scalar Inet.sas19.host57.inetUser 	"Total TCP packets received" 	5
scalar Inet.sas19.host57.inetUser 	"Initiated TCP sessions" 	7
scalar Inet.sas19.host57.inetUser 	"Total UDP bytes sent" 	0
scalar Inet.sas19.host57.inetUser 	"Total UDP packets sent" 	0
scalar Inet.sas19.host57.inetUser 	"Total UDP bytes received" 	0
scalar Inet.sas19.host57.inetUser 	"Total UDP packets received" 	0
scalar Inet.sas19.host57.inetUser 	"Initiated UDP sessions" 	0
scalar Inet.sas19.host57.inetUser 	"Total ICMP bytes sent" 	0
scalar Inet.sas19.host57.inetUser 	"Total ICMP packets sent" 	0
scalar Inet.sas19.host57.inetUser 	"Total ICMP bytes received" 	0
scalar Inet.sas19.host57.inetUser 	"Total ICMP packets received" 	0
scalar Inet.sas19.host57.inetUser 	"Initiated ICMP sessions" 	0
scalar Inet.sas19.host57.networkLayer.ip 	"Total packets" 	0
scalar Inet.sas19.host57.networkLayer.ip 	"TCP packets" 	0
scalar Inet.sas19.host57.networkLayer.ip 	"UDP packets" 	0
scalar Inet.sas19.host57.networkLayer.ip 	"ICMP packets" 	0
scalar Inet.sas19.host57.networkLayer.arp 	"ARP requests sent" 	0
scalar Inet.sas19.host57.networkLayer.arp 	"ARP replies sent" 	0
scalar Inet.sas19.host57.networkLayer.arp 	"ARP resolutions" 	0
scalar Inet.sas19.host57.networkLayer.arp 	"failed ARP resolutions" 	0
scalar Inet.sas19.host57.ppp[0].queue 	"packets received by queue" 	48
scalar Inet.sas19.host57.ppp[0].queue 	"packets dropped by queue" 	0
scalar Inet.sas19.host58.inetUser 	"Total bytes sent" 	486
scalar Inet.sas19.host58.inetUser 	"Total packets sent" 	2
scalar Inet.sas19.host58.inetUser 	"Total bytes received" 	2004
scalar Inet.sas19.host58.inetUser 	"Total packets received" 	2
scalar Inet.sas19.host58.inetUser 	"Initiated sessions" 	2
scalar Inet.sas19.host58.inetUser 	"Total TCP bytes sent" 	486
scalar Inet.sas19.host58.inetUser 	"Total TCP packets sent" 	2
scalar Inet.sas19.host58.inetUser 	"Total TCP bytes received" 	2004
scalar Inet.sas19.host58.inetUser 	"Total TCP packets received" 	2
scalar Inet.sas19.host58.inetUser 	"Initiated TCP sessions" 	2
scalar Inet.sas19.host58.inetUser 	"Total UDP bytes sent" 	0
scalar Inet.sas19.host58.inetUser 	"Total UDP packets sent" 	0
scalar Inet.sas19.host58.inetUser 	"Total UDP bytes received" 	0
scalar Inet.sas19.host58.inetUser 	"Total UDP packets received" 	0
scalar Inet.sas19.host58.inetUser 	"Initiated UDP sessions" 	0
scalar Inet.sas19.host58.inetUser 	"Total ICMP bytes sent" 	0
scalar Inet.sas19.host58.inetUser 	"Total ICMP packets sent" 	0
scalar Inet.sas19.host58.inetUser 	"Total ICMP bytes received" 	0
scalar Inet.sas19.host58.inetUser 	"Total ICMP packets received" 	0
scalar Inet.sas19.host58.inetUser 	"Initiated ICMP sessions" 	0
scalar Inet.sas19.host58.networkLayer.ip 	"Total packets" 	0
scalar Inet.sas19.host58.networkLayer.ip 	"TCP packets" 	0
scalar Inet.sas19.host58.networkLayer.ip 	"UDP packets" 	0
scalar Inet.sas19.host58.networkLayer.ip 	"ICMP packets" 	0
scalar Inet.sas19.host58.networkLayer.arp 	"ARP requests sent" 	0
scalar Inet.sas19.host58.networkLayer.arp 	"ARP replies sent" 	0
scalar Inet.sas19.host58.networkLayer.arp 	"ARP resolutions" 	0
scalar Inet.sas19.host58.networkLayer.arp 	"failed ARP resolutions" 	0
scalar Inet.sas19.host58.ppp[0].queue 	"packets received by queue" 	16
scalar Inet.sas19.host58.ppp[0].queue 	"packets dropped by queue" 	0
scalar Inet.sas19.host59.inetUser 	"Total bytes sent" 	15426
scalar Inet.sas19.host59.inetUser 	"Total packets sent" 	9
scalar Inet.sas19.host59.inetUser 	"Total bytes received" 	9077
scalar Inet.sas19.host59.inetUser 	"Total packets received" 	9
scalar Inet.sas19.host59.inetUser 	"Initiated sessions" 	7
scalar Inet.sas19.host59.inetUser 	"Total TCP bytes sent" 	15426
scalar Inet.sas19.host59.inetUser 	"Total TCP packets sent" 	9
scalar Inet.sas19.host59.inetUser 	"Total TCP bytes received" 	9077
scalar Inet.sas19.host59.inetUser 	"Total TCP packets received" 	9
scalar Inet.sas19.host59.inetUser 	"Initiated TCP sessions" 	7
scalar Inet.sas19.host59.inetUser 	"Total UDP bytes sent" 	0
scalar Inet.sas19.host59.inetUser 	"Total UDP packets sent" 	0
scalar Inet.sas19.host59.inetUser 	"Total UDP bytes received" 	0
scalar Inet.sas19.host59.inetUser 	"Total UDP packets received" 	0
scalar Inet.sas19.host59.inetUser 	"Initiated UDP sessions" 	0
scalar Inet.sas19.host59.inetUser 	"Total ICMP bytes sent" 	0
scalar Inet.sas19.host59.inetUser 	"Total ICMP packets sent" 	0
scalar Inet.sas19.host59.inetUser 	"Total ICMP bytes received" 	0
scalar Inet.sas19.host59.inetUser 	"Total ICMP packets received" 	0
scalar Inet.sas19.host59.inetUser 	"Initiated ICMP sessions" 	0
scalar Inet.sas19.host59.networkLayer.ip 	"Total packets" 	0
scalar Inet.sas19.host59.networkLayer.ip 	"TCP packets" 	0
scalar Inet.sas19.host59.networkLayer.ip 	"UDP packets" 	0
scalar Inet.sas19.host59.networkLayer.ip 	"ICMP packets" 	0
scalar Inet.sas19.host59.networkLayer.arp 	"ARP requests sent" 	0
scalar Inet.sas19.host59.networkLayer.arp 	"ARP replies sent" 	0
scalar Inet.sas19.host59.networkLayer.arp 	"ARP resolutions" 	0
scalar Inet.sas19.host59.networkLayer.arp 	"failed ARP resolutions" 	0
scalar Inet.sas19.host59.ppp[0].queue 	"packets received by queue" 	65
scalar Inet.sas19.host59.ppp[0].queue 	"packets dropped by queue" 	0
scalar Inet.sas19.host60.inetUser 	"Total bytes sent" 	1703
scalar Inet.sas19.host60.inetUser 	"Total packets sent" 	6
scalar Inet.sas19.host60.inetUser 	"Total bytes received" 	6107
scalar Inet.sas19.host60.inetUser 	"Total packets received" 	6
scalar Inet.sas19.host60.inetUser 	"Initiated sessions" 	5
scalar Inet.sas19.host60.inetUser 	"Total TCP bytes sent" 	1703
scalar Inet.sas19.host60.inetUser 	"Total TCP packets sent" 	6
scalar Inet.sas19.host60.inetUser 	"Total TCP bytes received" 	6107
scalar Inet.sas19.host60.inetUser 	"Total TCP packets received" 	6
scalar Inet.sas19.host60.inetUser 	"Initiated TCP sessions" 	5
scalar Inet.sas19.host60.inetUser 	"Total UDP bytes sent" 	0
scalar Inet.sas19.host60.inetUser 	"Total UDP packets sent" 	0
scalar Inet.sas19.host60.inetUser 	"Total UDP bytes received" 	0
scalar Inet.sas19.host60.inetUser 	"Total UDP packets received" 	0
scalar Inet.sas19.host60.inetUser 	"Initiated UDP sessions" 	0
scalar Inet.sas19.host60.inetUser 	"Total ICMP bytes sent" 	0
scalar Inet.sas19.host60.inetUser 	"Total ICMP packets sent" 	0
scalar Inet.sas19.host60.inetUser 	"Total ICMP bytes received" 	0
scalar Inet.sas19.host60.inetUser 	"Total ICMP packets received" 	0
scalar Inet.sas19.host60.inetUser 	"Initiated ICMP sessions" 	0
scalar Inet.sas19.host60.networkLayer.ip 	"Total packets" 	0
scalar Inet.sas19.host60.networkLayer.ip 	"TCP packets" 	0
scalar Inet.sas19.host60.networkLayer.ip 	"UDP packets" 	0
scalar Inet.sas19.host60.networkLayer.ip 	"ICMP packets" 	0
scalar Inet.sas19.host60.networkLayer.arp 	"ARP requests sent" 	0
scalar Inet.sas19.host60.networkLayer.arp 	"ARP replies sent" 	0
scalar Inet.sas19.host60.networkLayer.arp 	"ARP resolutions" 	0
scalar Inet.sas19.host60.networkLayer.arp 	"failed ARP resolutions" 	0
scalar Inet.sas19.host60.ppp[0].queue 	"packets received by queue" 	38
scalar Inet.sas19.host60.ppp[0].queue 	"packets dropped by queue" 	0
scalar Inet.sas19.host61.inetUser 	"Total bytes sent" 	405
scalar Inet.sas19.host61.inetUser 	"Total packets sent" 	2
scalar Inet.sas19.host61.inetUser 	"Total bytes received" 	2161
scalar Inet.sas19.host61.inetUser 	"Total packets received" 	2
scalar Inet.sas19.host61.inetUser 	"Initiated sessions" 	4
scalar Inet.sas19.host61.inetUser 	"Total TCP bytes sent" 	405
scalar Inet.sas19.host61.inetUser 	"Total TCP packets sent" 	2
scalar Inet.sas19.host61.inetUser 	"Total TCP bytes received" 	2161
scalar Inet.sas19.host61.inetUser 	"Total TCP packets received" 	2
scalar Inet.sas19.host61.inetUser 	"Initiated TCP sessions" 	4
scalar Inet.sas19.host61.inetUser 	"Total UDP bytes sent" 	0
scalar Inet.sas19.host61.inetUser 	"Total UDP packets sent" 	0
scalar Inet.sas19.host61.inetUser 	"Total UDP bytes received" 	0
scalar Inet.sas19.host61.inetUser 	"Total UDP packets received" 	0
scalar Inet.sas19.host61.inetUser 	"Initiated UDP sessions" 	0
scalar Inet.sas19.host61.inetUser 	"Total ICMP bytes sent" 	0
scalar Inet.sas19.host61.inetUser 	"Total ICMP packets sent" 	0
scalar Inet.sas19.host61.inetUser 	"Total ICMP bytes received" 	0
scalar Inet.sas19.host61.inetUser 	"Total ICMP packets received" 	0
scalar Inet.sas19.host61.inetUser 	"Initiated ICMP sessions" 	0
scalar Inet.sas19.host61.networkLayer.ip 	"Total packets" 	0
scalar Inet.sas19.host61.networkLayer.ip 	"TCP packets" 	0
scalar Inet.sas19.host61.networkLayer.ip 	"UDP packets" 	0
scalar Inet.sas19.host61.networkLayer.ip 	"ICMP packets" 	0
scalar Inet.sas19.host61.networkLayer.arp 	"ARP requests sent" 	0
scalar Inet.sas19.host61.networkLayer.arp 	"ARP replies sent" 	0
scalar Inet.sas19.host61.networkLayer.arp 	"ARP resolutions" 	0
scalar Inet.sas19.host61.networkLayer.arp 	"failed ARP resolutions" 	0
scalar Inet.sas19.host61.ppp[0].queue 	"packets received by queue" 	26
scalar Inet.sas19.host61.ppp[0].queue 	"packets dropped by queue" 	0
scalar Inet.sas19.host62.inetUser 	"Total bytes sent" 	1526
scalar Inet.sas19.host62.inetUser 	"Total packets sent" 	7
scalar Inet.sas19.host62.inetUser 	"Total bytes received" 	125164
scalar Inet.sas19.host62.inetUser 	"Total packets received" 	7
scalar Inet.sas19.host62.inetUser 	"Initiated sessions" 	8
scalar Inet.sas19.host62.inetUser 	"Total TCP bytes sent" 	1526
scalar Inet.sas19.host62.inetUser 	"Total TCP packets sent" 	7
scalar Inet.sas19.host62.inetUser 	"Total TCP bytes received" 	125164
scalar Inet.sas19.host62.inetUser 	"Total TCP packets received" 	7
scalar Inet.sas19.host62.inetUser 	"Initiated TCP sessions" 	8
scalar Inet.sas19.host62.inetUser 	"Total UDP bytes sent" 	0
scalar Inet.sas19.host62.inetUser 	"Total UDP packets sent" 	0
scalar Inet.sas19.host62.inetUser 	"Total UDP bytes received" 	0
scalar Inet.sas19.host62.inetUser 	"Total UDP packets received" 	0
scalar Inet.sas19.host62.inetUser 	"Initiated UDP sessions" 	0
scalar Inet.sas19.host62.inetUser 	"Total ICMP bytes sent" 	0
scalar Inet.sas19.host62.inetUser 	"Total ICMP packets sent" 	0
scalar Inet.sas19.host62.inetUser 	"Total ICMP bytes received" 	0
scalar Inet.sas19.host62.inetUser 	"Total ICMP packets received" 	0
scalar Inet.sas19.host62.inetUser 	"Initiated ICMP sessions" 	0
scalar Inet.sas19.host62.networkLayer.ip 	"Total packets" 	0
scalar Inet.sas19.host62.networkLayer.ip 	"TCP packets" 	0
scalar Inet.sas19.host62.networkLayer.ip 	"UDP packets" 	0
scalar Inet.sas19.host62.networkLayer.ip 	"ICMP packets" 	0
scalar Inet.sas19.host62.networkLayer.arp 	"ARP requests sent" 	0
scalar Inet.sas19.host62.networkLayer.arp 	"ARP replies sent" 	0
scalar Inet.sas19.host62.networkLayer.arp 	"ARP resolutions" 	0
scalar Inet.sas19.host62.networkLayer.arp 	"failed ARP resolutions" 	0
scalar Inet.sas19.host62.ppp[0].queue 	"packets received by queue" 	172
scalar Inet.sas19.host62.ppp[0].queue 	"packets dropped by queue" 	0
scalar Inet.sas19.host63.inetUser 	"Total bytes sent" 	8368
scalar Inet.sas19.host63.inetUser 	"Total packets sent" 	19
scalar Inet.sas19.host63.inetUser 	"Total bytes received" 	138193
scalar Inet.sas19.host63.inetUser 	"Total packets received" 	19
scalar Inet.sas19.host63.inetUser 	"Initiated sessions" 	19
scalar Inet.sas19.host63.inetUser 	"Total TCP bytes sent" 	8368
scalar Inet.sas19.host63.inetUser 	"Total TCP packets sent" 	19
scalar Inet.sas19.host63.inetUser 	"Total TCP bytes received" 	138193
scalar Inet.sas19.host63.inetUser 	"Total TCP packets received" 	19
scalar Inet.sas19.host63.inetUser 	"Initiated TCP sessions" 	19
scalar Inet.sas19.host63.inetUser 	"Total UDP bytes sent" 	0
scalar Inet.sas19.host63.inetUser 	"Total UDP packets sent" 	0
scalar Inet.sas19.host63.inetUser 	"Total UDP bytes received" 	0
scalar Inet.sas19.host63.inetUser 	"Total UDP packets received" 	0
scalar Inet.sas19.host63.inetUser 	"Initiated UDP sessions" 	0
scalar Inet.sas19.host63.inetUser 	"Total ICMP bytes sent" 	0
scalar Inet.sas19.host63.inetUser 	"Total ICMP packets sent" 	0
scalar Inet.sas19.host63.inetUser 	"Total ICMP bytes received" 	0
scalar Inet.sas19.host63.inetUser 	"Total ICMP packets received" 	0
scalar Inet.sas19.host63.inetUser 	"Initiated ICMP sessions" 	0
scalar Inet.sas19.host63.networkLayer.ip 	"Total packets" 	0
scalar Inet.sas19.host63.networkLayer.ip 	"TCP packets" 	0
scalar Inet.sas19.host63.networkLayer.ip 	"UDP packets" 	0
scalar Inet.sas19.host63.networkLayer.ip 	"ICMP packets" 	0
scalar Inet.sas19.host63.networkLayer.arp 	"ARP requests sent" 	0
scalar Inet.sas19.host63.networkLayer.arp 	"ARP replies sent" 	0
scalar Inet.sas19.host63.networkLayer.arp 	"ARP resolutions" 	0
scalar Inet.sas19.host63.networkLayer.arp 	"failed ARP resolutions" 	0
scalar Inet.sas19.host63.ppp[0].queue 	"packets received by queue" 	253
scalar Inet.sas19.host63.ppp[0].queue 	"packets dropped by queue" 	0
